{
   "completed_at" : "20210811T041612Z",
   "completed_status" : "Success",
   "current_step" : 18,
   "description" : "Mixed_use 1",
   "eplusout_err" : "Program Version,EnergyPlus, Version 9.5.0-de239b2e5f, YMD=2021.08.10 22:11,\n   ** Warning ** Timestep: Requested number (1) is less than the suggested minimum of 4.\n   **   ~~~   ** Please see entry for Timestep in Input/Output Reference for discussion of considerations.\n   ************* Beginning Zone Sizing Calculations\n   ** Warning ** ProcessScheduleInput: Schedule:Day:Interval=\"42 SPACE(S) OCC SCH DEFAULT\", Blank Schedule Type Limits Name input -- will not be validated.\n   ** Warning ** ProcessScheduleInput: Schedule:Day:Interval=\"42 SPACE(S) OCC SCH SATURDAY\", Blank Schedule Type Limits Name input -- will not be validated.\n   ** Warning ** ProcessScheduleInput: Schedule:Day:Interval=\"42 SPACE(S) OCC SCH SUMMER DESIGN DAY\", Blank Schedule Type Limits Name input -- will not be validated.\n   ** Warning ** ProcessScheduleInput: Schedule:Day:Interval=\"42 SPACE(S) OCC SCH SUNDAY\", Blank Schedule Type Limits Name input -- will not be validated.\n   ** Warning ** ProcessScheduleInput: Schedule:Day:Interval=\"42 SPACE(S) OCC SCH WINTER DESIGN DAY\", Blank Schedule Type Limits Name input -- will not be validated.\n   ** Warning ** ProcessScheduleInput: Schedule:Day:Interval=\"ECONOMIZER MAX OA FRACTION 70 PCT DEFAULT\", Blank Schedule Type Limits Name input -- will not be validated.\n   ** Warning ** ProcessScheduleInput: Schedule:Day:Interval=\"SCHEDULE DAY 1\", Blank Schedule Type Limits Name input -- will not be validated.\n   ** Warning ** ProcessScheduleInput: Schedule:Day:Interval=\"SCHEDULE DAY 2\", Blank Schedule Type Limits Name input -- will not be validated.\n   ** Warning ** ProcessScheduleInput: Schedule:Day:Interval=\"SCHEDULE DAY 3\", Blank Schedule Type Limits Name input -- will not be validated.\n   ** Warning ** ProcessScheduleInput: Schedule:Day:Interval=\"SCHEDULE DAY 4\", Blank Schedule Type Limits Name input -- will not be validated.\n   ** Warning ** ProcessScheduleInput: Schedule:Day:Interval=\"SCHEDULE DAY 5\", Blank Schedule Type Limits Name input -- will not be validated.\n   ** Warning ** ProcessScheduleInput: Schedule:Day:Interval=\"SCHEDULE DAY 6\", Blank Schedule Type Limits Name input -- will not be validated.\n   ** Warning ** ProcessScheduleInput: Schedule:Day:Interval=\"SCHEDULE DAY 7\", Blank Schedule Type Limits Name input -- will not be validated.\n   ** Warning ** ProcessScheduleInput: Schedule:Day:Interval=\"SCHEDULE DAY 8\", Blank Schedule Type Limits Name input -- will not be validated.\n   ** Warning ** ProcessScheduleInput: Schedule:Year=\"ECONOMIZER MAX OA FRACTION 70 PCT\", Blank Schedule Type Limits Name input -- will not be validated.\n   ** Warning ** ProcessScheduleInput: Schedule:Year=\"ELEVATOR SCHEDULE\", Blank Schedule Type Limits Name input -- will not be validated.\n   ** Warning ** ProcessScheduleInput: Schedule:Constant=\"ALWAYS OFF DISCRETE\", Blank Schedule Type Limits Name input -- will not be validated.\n   ** Warning ** ProcessScheduleInput: Schedule:Constant=\"ALWAYS ON CONTINUOUS\", Blank Schedule Type Limits Name input -- will not be validated.\n   ** Warning ** GetHTSurfaceData: Surfaces with interface to Ground found but no \"Ground Temperatures\" were input.\n   **   ~~~   ** Found first in surface=SURFACE 1\n   **   ~~~   ** Defaults, constant throughout the year of (18.0) will be used.\n   ** Warning ** CheckUsedConstructions: There are 10 nominally unused constructions in input.\n   **   ~~~   ** For explicit details on each unused construction, use Output:Diagnostics,DisplayExtraWarnings;\n   ** Warning ** Seems like you already tried to get a Handle on this Actuator 1times.\n   **   ~~~   ** Occurred for componentType='SCHEDULE:YEAR', controlType='SCHEDULE VALUE', uniqueKey='OFFICELARGE CLGSETP_SCH_NO_SETBACK'.\n   **   ~~~   ** You should take note that there is a risk of overwritting.\n   ** Warning ** Seems like you already tried to get a Handle on this Actuator 1times.\n   **   ~~~   ** Occurred for componentType='SCHEDULE:YEAR', controlType='SCHEDULE VALUE', uniqueKey='OFFICELARGE HTGSETP_SCH_YES_OPTIMUM'.\n   **   ~~~   ** You should take note that there is a risk of overwritting.\n   ** Warning ** DetermineShadowingCombinations: There are 2 surfaces which are receiving surfaces and are non-convex.\n   **   ~~~   ** ...Shadowing values may be inaccurate. Check .shd report file for more surface shading details\n   **   ~~~   ** ...Add Output:Diagnostics,DisplayExtraWarnings; to see individual warnings for each surface.\n   ** Warning ** GetDaylightingControls: Fraction of Zone controlled by the Daylighting reference points is < 1.0.\n   **   ~~~   ** ..discovered in \"Daylighting:Controls\" for Zone=\"BUILDING STORY 1 THERMALZONE 1\", only 0.502 of the zone is controlled.\n   ** Warning ** GetDaylightingControls: Fraction of Zone controlled by the Daylighting reference points is < 1.0.\n   **   ~~~   ** ..discovered in \"Daylighting:Controls\" for Zone=\"BUILDING STORY 1 THERMALZONE 2\", only 0.543 of the zone is controlled.\n   ** Warning ** GetDaylightingControls: Fraction of Zone controlled by the Daylighting reference points is < 1.0.\n   **   ~~~   ** ..discovered in \"Daylighting:Controls\" for Zone=\"BUILDING STORY 1 THERMALZONE 3\", only 0.555 of the zone is controlled.\n   ** Warning ** GetDaylightingControls: Fraction of Zone controlled by the Daylighting reference points is < 1.0.\n   **   ~~~   ** ..discovered in \"Daylighting:Controls\" for Zone=\"BUILDING STORY 1 THERMALZONE 4\", only 0.549 of the zone is controlled.\n   ** Warning ** GetDaylightingControls: Fraction of Zone controlled by the Daylighting reference points is < 1.0.\n   **   ~~~   ** ..discovered in \"Daylighting:Controls\" for Zone=\"BUILDING STORY 1 THERMALZONE 5\", only 0.548 of the zone is controlled.\n   ** Warning ** GetDaylightingControls: Fraction of Zone controlled by the Daylighting reference points is < 1.0.\n   **   ~~~   ** ..discovered in \"Daylighting:Controls\" for Zone=\"BUILDING STORY 1 THERMALZONE 6\", only 0.560 of the zone is controlled.\n   ** Warning ** GetDaylightingControls: Fraction of Zone controlled by the Daylighting reference points is < 1.0.\n   **   ~~~   ** ..discovered in \"Daylighting:Controls\" for Zone=\"BUILDING STORY 1 THERMALZONE 7\", only 0.515 of the zone is controlled.\n   ** Warning ** GetDaylightingControls: Fraction of Zone controlled by the Daylighting reference points is < 1.0.\n   **   ~~~   ** ..discovered in \"Daylighting:Controls\" for Zone=\"BUILDING STORY 2 THERMALZONE 1\", only 0.502 of the zone is controlled.\n   ** Warning ** GetDaylightingControls: Fraction of Zone controlled by the Daylighting reference points is < 1.0.\n   **   ~~~   ** ..discovered in \"Daylighting:Controls\" for Zone=\"BUILDING STORY 2 THERMALZONE 2\", only 0.543 of the zone is controlled.\n   ** Warning ** GetDaylightingControls: Fraction of Zone controlled by the Daylighting reference points is < 1.0.\n   **   ~~~   ** ..discovered in \"Daylighting:Controls\" for Zone=\"BUILDING STORY 2 THERMALZONE 3\", only 0.555 of the zone is controlled.\n   ** Warning ** GetDaylightingControls: Fraction of Zone controlled by the Daylighting reference points is < 1.0.\n   **   ~~~   ** ..discovered in \"Daylighting:Controls\" for Zone=\"BUILDING STORY 2 THERMALZONE 4\", only 0.549 of the zone is controlled.\n   ** Warning ** GetDaylightingControls: Fraction of Zone controlled by the Daylighting reference points is < 1.0.\n   **   ~~~   ** ..discovered in \"Daylighting:Controls\" for Zone=\"BUILDING STORY 2 THERMALZONE 5\", only 0.548 of the zone is controlled.\n   ** Warning ** GetDaylightingControls: Fraction of Zone controlled by the Daylighting reference points is < 1.0.\n   **   ~~~   ** ..discovered in \"Daylighting:Controls\" for Zone=\"BUILDING STORY 2 THERMALZONE 6\", only 0.560 of the zone is controlled.\n   ** Warning ** GetDaylightingControls: Fraction of Zone controlled by the Daylighting reference points is < 1.0.\n   **   ~~~   ** ..discovered in \"Daylighting:Controls\" for Zone=\"BUILDING STORY 2 THERMALZONE 7\", only 0.515 of the zone is controlled.\n   ** Warning ** GetDaylightingControls: Fraction of Zone controlled by the Daylighting reference points is < 1.0.\n   **   ~~~   ** ..discovered in \"Daylighting:Controls\" for Zone=\"BUILDING STORY 3 THERMALZONE 1\", only 0.987 of the zone is controlled.\n   ** Warning ** GetDaylightingControls: Fraction of Zone controlled by the Daylighting reference points is < 1.0.\n   **   ~~~   ** ..discovered in \"Daylighting:Controls\" for Zone=\"BUILDING STORY 3 THERMALZONE 2\", only 0.999 of the zone is controlled.\n   ** Warning ** GetDaylightingControls: Fraction of Zone controlled by the Daylighting reference points is < 1.0.\n   **   ~~~   ** ..discovered in \"Daylighting:Controls\" for Zone=\"BUILDING STORY 3 THERMALZONE 3\", only 0.999 of the zone is controlled.\n   ** Warning ** GetDaylightingControls: Fraction of Zone controlled by the Daylighting reference points is < 1.0.\n   **   ~~~   ** ..discovered in \"Daylighting:Controls\" for Zone=\"BUILDING STORY 3 THERMALZONE 4\", only 0.987 of the zone is controlled.\n   ** Warning ** GetDaylightingControls: Fraction of Zone controlled by the Daylighting reference points is < 1.0.\n   **   ~~~   ** ..discovered in \"Daylighting:Controls\" for Zone=\"BUILDING STORY 3 THERMALZONE 5\", only 0.985 of the zone is controlled.\n   ** Warning ** GetDaylightingControls: Fraction of Zone controlled by the Daylighting reference points is < 1.0.\n   **   ~~~   ** ..discovered in \"Daylighting:Controls\" for Zone=\"BUILDING STORY 3 THERMALZONE 7\", only 0.991 of the zone is controlled.\n   ** Warning ** GetDaylightingControls: Fraction of Zone controlled by the Daylighting reference points is < 1.0.\n   **   ~~~   ** ..discovered in \"Daylighting:Controls\" for Zone=\"BUILDING STORY 4 THERMALZONE 1\", only 0.987 of the zone is controlled.\n   ** Warning ** GetDaylightingControls: Fraction of Zone controlled by the Daylighting reference points is < 1.0.\n   **   ~~~   ** ..discovered in \"Daylighting:Controls\" for Zone=\"BUILDING STORY 4 THERMALZONE 2\", only 0.999 of the zone is controlled.\n   ** Warning ** GetDaylightingControls: Fraction of Zone controlled by the Daylighting reference points is < 1.0.\n   **   ~~~   ** ..discovered in \"Daylighting:Controls\" for Zone=\"BUILDING STORY 4 THERMALZONE 3\", only 0.999 of the zone is controlled.\n   ** Warning ** GetDaylightingControls: Fraction of Zone controlled by the Daylighting reference points is < 1.0.\n   **   ~~~   ** ..discovered in \"Daylighting:Controls\" for Zone=\"BUILDING STORY 4 THERMALZONE 4\", only 0.987 of the zone is controlled.\n   ** Warning ** GetDaylightingControls: Fraction of Zone controlled by the Daylighting reference points is < 1.0.\n   **   ~~~   ** ..discovered in \"Daylighting:Controls\" for Zone=\"BUILDING STORY 4 THERMALZONE 5\", only 0.985 of the zone is controlled.\n   ** Warning ** GetDaylightingControls: Fraction of Zone controlled by the Daylighting reference points is < 1.0.\n   **   ~~~   ** ..discovered in \"Daylighting:Controls\" for Zone=\"BUILDING STORY 4 THERMALZONE 7\", only 0.991 of the zone is controlled.\n   ** Warning ** GetSimpleAirModelInputs: ZoneInfiltration:DesignFlowRate=\"BUILDING STORY 1 THERMALZONE OFFICE WHOLEBUILDING - LG OFFICE A  - STORY GROUND INFILTRATION\", Design Flow Rate Calculation Method specifies Flow per Exterior Surface Area, but Exterior Surface Area = 0.  0 Infiltration will result.\n   ** Warning ** GetSimpleAirModelInputs: ZoneInfiltration:DesignFlowRate=\"BUILDING STORY 1 THERMALZONE OFFICE WHOLEBUILDING - LG OFFICE A END_A - STORY GROUND INFILTRATION\", Design Flow Rate Calculation Method specifies Flow per Exterior Surface Area, but Exterior Surface Area = 0.  0 Infiltration will result.\n   ** Warning ** GetSimpleAirModelInputs: ZoneInfiltration:DesignFlowRate=\"BUILDING STORY 1 THERMALZONE OFFICE WHOLEBUILDING - LG OFFICE B END_A - STORY GROUND INFILTRATION\", Design Flow Rate Calculation Method specifies Flow per Exterior Surface Area, but Exterior Surface Area = 0.  0 Infiltration will result.\n   ** Warning ** GetSimpleAirModelInputs: ZoneInfiltration:DesignFlowRate=\"BUILDING STORY 1 THERMALZONE OFFICE WHOLEBUILDING - LG OFFICE C  - STORY GROUND INFILTRATION\", Design Flow Rate Calculation Method specifies Flow per Exterior Surface Area, but Exterior Surface Area = 0.  0 Infiltration will result.\n   ** Warning ** GetSimpleAirModelInputs: ZoneInfiltration:DesignFlowRate=\"BUILDING STORY 1 THERMALZONE OFFICE WHOLEBUILDING - LG OFFICE C END_A - STORY GROUND INFILTRATION\", Design Flow Rate Calculation Method specifies Flow per Exterior Surface Area, but Exterior Surface Area = 0.  0 Infiltration will result.\n   ** Warning ** GetSimpleAirModelInputs: ZoneInfiltration:DesignFlowRate=\"BUILDING STORY 2 THERMALZONE OFFICE WHOLEBUILDING - LG OFFICE A  - STORY MID INFILTRATION\", Design Flow Rate Calculation Method specifies Flow per Exterior Surface Area, but Exterior Surface Area = 0.  0 Infiltration will result.\n   ** Warning ** GetSimpleAirModelInputs: ZoneInfiltration:DesignFlowRate=\"BUILDING STORY 2 THERMALZONE OFFICE WHOLEBUILDING - LG OFFICE A END_A - STORY MID INFILTRATION\", Design Flow Rate Calculation Method specifies Flow per Exterior Surface Area, but Exterior Surface Area = 0.  0 Infiltration will result.\n   ** Warning ** GetSimpleAirModelInputs: ZoneInfiltration:DesignFlowRate=\"BUILDING STORY 2 THERMALZONE OFFICE WHOLEBUILDING - LG OFFICE A END_B - STORY MID INFILTRATION\", Design Flow Rate Calculation Method specifies Flow per Exterior Surface Area, but Exterior Surface Area = 0.  0 Infiltration will result.\n   ** Warning ** GetSimpleAirModelInputs: ZoneInfiltration:DesignFlowRate=\"BUILDING STORY 2 THERMALZONE OFFICE WHOLEBUILDING - LG OFFICE B END_A - STORY MID INFILTRATION\", Design Flow Rate Calculation Method specifies Flow per Exterior Surface Area, but Exterior Surface Area = 0.  0 Infiltration will result.\n   ** Warning ** GetSimpleAirModelInputs: ZoneInfiltration:DesignFlowRate=\"BUILDING STORY 2 THERMALZONE OFFICE WHOLEBUILDING - LG OFFICE B END_B - STORY MID INFILTRATION\", Design Flow Rate Calculation Method specifies Flow per Exterior Surface Area, but Exterior Surface Area = 0.  0 Infiltration will result.\n   ** Warning ** GetSimpleAirModelInputs: ZoneInfiltration:DesignFlowRate=\"BUILDING STORY 2 THERMALZONE OFFICE WHOLEBUILDING - LG OFFICE C  - STORY MID INFILTRATION\", Design Flow Rate Calculation Method specifies Flow per Exterior Surface Area, but Exterior Surface Area = 0.  0 Infiltration will result.\n   ** Warning ** GetSimpleAirModelInputs: ZoneInfiltration:DesignFlowRate=\"BUILDING STORY 2 THERMALZONE OFFICE WHOLEBUILDING - LG OFFICE C END_A - STORY MID INFILTRATION\", Design Flow Rate Calculation Method specifies Flow per Exterior Surface Area, but Exterior Surface Area = 0.  0 Infiltration will result.\n   ** Warning ** GetSimpleAirModelInputs: ZoneInfiltration:DesignFlowRate=\"BUILDING STORY 2 THERMALZONE OFFICE WHOLEBUILDING - LG OFFICE C END_B - STORY MID INFILTRATION\", Design Flow Rate Calculation Method specifies Flow per Exterior Surface Area, but Exterior Surface Area = 0.  0 Infiltration will result.\n   ** Warning ** GetSimpleAirModelInputs: ZoneInfiltration:DesignFlowRate=\"BUILDING STORY 3 THERMALZONE FULLSERVICERESTAURANT DINING A  - STORY MID2 INFILTRATION\", Design Flow Rate Calculation Method specifies Flow per Exterior Surface Area, but Exterior Surface Area = 0.  0 Infiltration will result.\n   ** Warning ** GetSimpleAirModelInputs: ZoneInfiltration:DesignFlowRate=\"BUILDING STORY 3 THERMALZONE FULLSERVICERESTAURANT DINING A END_B - STORY MID2 INFILTRATION\", Design Flow Rate Calculation Method specifies Flow per Exterior Surface Area, but Exterior Surface Area = 0.  0 Infiltration will result.\n   ** Warning ** GetSimpleAirModelInputs: ZoneInfiltration:DesignFlowRate=\"BUILDING STORY 3 THERMALZONE FULLSERVICERESTAURANT DINING B END_B - STORY MID2 INFILTRATION\", Design Flow Rate Calculation Method specifies Flow per Exterior Surface Area, but Exterior Surface Area = 0.  0 Infiltration will result.\n   ** Warning ** GetSimpleAirModelInputs: ZoneInfiltration:DesignFlowRate=\"BUILDING STORY 3 THERMALZONE FULLSERVICERESTAURANT DINING C  - STORY MID2 INFILTRATION\", Design Flow Rate Calculation Method specifies Flow per Exterior Surface Area, but Exterior Surface Area = 0.  0 Infiltration will result.\n   ** Warning ** GetSimpleAirModelInputs: ZoneInfiltration:DesignFlowRate=\"BUILDING STORY 3 THERMALZONE FULLSERVICERESTAURANT DINING C END_B - STORY MID2 INFILTRATION\", Design Flow Rate Calculation Method specifies Flow per Exterior Surface Area, but Exterior Surface Area = 0.  0 Infiltration will result.\n   ** Warning ** GetSimpleAirModelInputs: ZoneInfiltration:DesignFlowRate=\"BUILDING STORY 3 THERMALZONE FULLSERVICERESTAURANT KITCHEN A  - STORY MID2 INFILTRATION\", Design Flow Rate Calculation Method specifies Flow per Exterior Surface Area, but Exterior Surface Area = 0.  0 Infiltration will result.\n   ** Warning ** GetSimpleAirModelInputs: ZoneInfiltration:DesignFlowRate=\"BUILDING STORY 3 THERMALZONE FULLSERVICERESTAURANT KITCHEN A END_A - STORY MID2 INFILTRATION\", Design Flow Rate Calculation Method specifies Flow per Exterior Surface Area, but Exterior Surface Area = 0.  0 Infiltration will result.\n   ** Warning ** GetSimpleAirModelInputs: ZoneInfiltration:DesignFlowRate=\"BUILDING STORY 3 THERMALZONE FULLSERVICERESTAURANT KITCHEN B END_A - STORY MID2 INFILTRATION\", Design Flow Rate Calculation Method specifies Flow per Exterior Surface Area, but Exterior Surface Area = 0.  0 Infiltration will result.\n   ** Warning ** GetSimpleAirModelInputs: ZoneInfiltration:DesignFlowRate=\"BUILDING STORY 3 THERMALZONE FULLSERVICERESTAURANT KITCHEN C  - STORY MID2 INFILTRATION\", Design Flow Rate Calculation Method specifies Flow per Exterior Surface Area, but Exterior Surface Area = 0.  0 Infiltration will result.\n   ** Warning ** GetSimpleAirModelInputs: ZoneInfiltration:DesignFlowRate=\"BUILDING STORY 3 THERMALZONE FULLSERVICERESTAURANT KITCHEN C END_A - STORY MID2 INFILTRATION\", Design Flow Rate Calculation Method specifies Flow per Exterior Surface Area, but Exterior Surface Area = 0.  0 Infiltration will result.\n   ** Warning ** GetElectricEIRChillerInput: Chiller:Electric:EIR=\"90.1-2013 WATERCOOLED  ROTARY SCREW CHILLER 0 2788TONS 0.6KW/TON\"\n   **   ~~~   ** Energy input ratio as a function of temperature curve output is not equal to 1.0 (+ or - 10%) at reference conditions.\n   **   ~~~   ** Curve output at reference conditions = 1.205\n   ** Warning ** Calculated design heating load for zone=BUILDING STORY 2 THERMALZONE is zero.\n   **   ~~~   ** Check Sizing:Zone and ZoneControl:Thermostat inputs.\n   ** Warning ** Calculated design heating load for zone=BUILDING STORY 3 THERMALZONE is zero.\n   **   ~~~   ** Check Sizing:Zone and ZoneControl:Thermostat inputs.\n   ************* Beginning System Sizing Calculations\n   ** Warning ** Since Zone Minimum Air Flow Input Method = CONSTANT, input for Fixed Minimum Air Flow Rate will be ignored.\n   **   ~~~   ** Occurs in AirTerminal:SingleDuct:VAV:Reheat = BUILDING STORY 1 THERMALZONE VAV TERMINAL\n   ** Warning ** Since Zone Minimum Air Flow Input Method = CONSTANT, input for Fixed Minimum Air Flow Rate will be ignored.\n   **   ~~~   ** Occurs in AirTerminal:SingleDuct:VAV:Reheat = BUILDING STORY 1 THERMALZONE 1 VAV TERMINAL\n   ** Warning ** Since Zone Minimum Air Flow Input Method = CONSTANT, input for Fixed Minimum Air Flow Rate will be ignored.\n   **   ~~~   ** Occurs in AirTerminal:SingleDuct:VAV:Reheat = BUILDING STORY 1 THERMALZONE 2 VAV TERMINAL\n   ** Warning ** Since Zone Minimum Air Flow Input Method = CONSTANT, input for Fixed Minimum Air Flow Rate will be ignored.\n   **   ~~~   ** Occurs in AirTerminal:SingleDuct:VAV:Reheat = BUILDING STORY 1 THERMALZONE 3 VAV TERMINAL\n   ** Warning ** Since Zone Minimum Air Flow Input Method = CONSTANT, input for Fixed Minimum Air Flow Rate will be ignored.\n   **   ~~~   ** Occurs in AirTerminal:SingleDuct:VAV:Reheat = BUILDING STORY 1 THERMALZONE 4 VAV TERMINAL\n   ** Warning ** Since Zone Minimum Air Flow Input Method = CONSTANT, input for Fixed Minimum Air Flow Rate will be ignored.\n   **   ~~~   ** Occurs in AirTerminal:SingleDuct:VAV:Reheat = BUILDING STORY 1 THERMALZONE 5 VAV TERMINAL\n   ** Warning ** Since Zone Minimum Air Flow Input Method = CONSTANT, input for Fixed Minimum Air Flow Rate will be ignored.\n   **   ~~~   ** Occurs in AirTerminal:SingleDuct:VAV:Reheat = BUILDING STORY 1 THERMALZONE 6 VAV TERMINAL\n   ** Warning ** Since Zone Minimum Air Flow Input Method = CONSTANT, input for Fixed Minimum Air Flow Rate will be ignored.\n   **   ~~~   ** Occurs in AirTerminal:SingleDuct:VAV:Reheat = BUILDING STORY 1 THERMALZONE 7 VAV TERMINAL\n   ** Warning ** Since Zone Minimum Air Flow Input Method = CONSTANT, input for Fixed Minimum Air Flow Rate will be ignored.\n   **   ~~~   ** Occurs in AirTerminal:SingleDuct:VAV:Reheat = BUILDING STORY 2 THERMALZONE VAV TERMINAL\n   ** Warning ** Since Zone Minimum Air Flow Input Method = CONSTANT, input for Fixed Minimum Air Flow Rate will be ignored.\n   **   ~~~   ** Occurs in AirTerminal:SingleDuct:VAV:Reheat = BUILDING STORY 2 THERMALZONE 1 VAV TERMINAL\n   ** Warning ** Since Zone Minimum Air Flow Input Method = CONSTANT, input for Fixed Minimum Air Flow Rate will be ignored.\n   **   ~~~   ** Occurs in AirTerminal:SingleDuct:VAV:Reheat = BUILDING STORY 2 THERMALZONE 2 VAV TERMINAL\n   ** Warning ** Since Zone Minimum Air Flow Input Method = CONSTANT, input for Fixed Minimum Air Flow Rate will be ignored.\n   **   ~~~   ** Occurs in AirTerminal:SingleDuct:VAV:Reheat = BUILDING STORY 2 THERMALZONE 3 VAV TERMINAL\n   ** Warning ** Since Zone Minimum Air Flow Input Method = CONSTANT, input for Fixed Minimum Air Flow Rate will be ignored.\n   **   ~~~   ** Occurs in AirTerminal:SingleDuct:VAV:Reheat = BUILDING STORY 2 THERMALZONE 4 VAV TERMINAL\n   ** Warning ** Since Zone Minimum Air Flow Input Method = CONSTANT, input for Fixed Minimum Air Flow Rate will be ignored.\n   **   ~~~   ** Occurs in AirTerminal:SingleDuct:VAV:Reheat = BUILDING STORY 2 THERMALZONE 5 VAV TERMINAL\n   ** Warning ** Since Zone Minimum Air Flow Input Method = CONSTANT, input for Fixed Minimum Air Flow Rate will be ignored.\n   **   ~~~   ** Occurs in AirTerminal:SingleDuct:VAV:Reheat = BUILDING STORY 2 THERMALZONE 6 VAV TERMINAL\n   ** Warning ** Since Zone Minimum Air Flow Input Method = CONSTANT, input for Fixed Minimum Air Flow Rate will be ignored.\n   **   ~~~   ** Occurs in AirTerminal:SingleDuct:VAV:Reheat = BUILDING STORY 2 THERMALZONE 7 VAV TERMINAL\n   ** Warning ** Since Zone Minimum Air Flow Input Method = CONSTANT, input for Fixed Minimum Air Flow Rate will be ignored.\n   **   ~~~   ** Occurs in AirTerminal:SingleDuct:VAV:Reheat = BUILDING STORY 3 THERMALZONE VAV TERMINAL\n   ** Warning ** Since Zone Minimum Air Flow Input Method = CONSTANT, input for Fixed Minimum Air Flow Rate will be ignored.\n   **   ~~~   ** Occurs in AirTerminal:SingleDuct:VAV:Reheat = BUILDING STORY 3 THERMALZONE 1 VAV TERMINAL\n   ** Warning ** Since Zone Minimum Air Flow Input Method = CONSTANT, input for Fixed Minimum Air Flow Rate will be ignored.\n   **   ~~~   ** Occurs in AirTerminal:SingleDuct:VAV:Reheat = BUILDING STORY 3 THERMALZONE 2 VAV TERMINAL\n   ** Warning ** Since Zone Minimum Air Flow Input Method = CONSTANT, input for Fixed Minimum Air Flow Rate will be ignored.\n   **   ~~~   ** Occurs in AirTerminal:SingleDuct:VAV:Reheat = BUILDING STORY 3 THERMALZONE 3 VAV TERMINAL\n   ** Warning ** Since Zone Minimum Air Flow Input Method = CONSTANT, input for Fixed Minimum Air Flow Rate will be ignored.\n   **   ~~~   ** Occurs in AirTerminal:SingleDuct:VAV:Reheat = BUILDING STORY 3 THERMALZONE 4 VAV TERMINAL\n   ** Warning ** Since Zone Minimum Air Flow Input Method = CONSTANT, input for Fixed Minimum Air Flow Rate will be ignored.\n   **   ~~~   ** Occurs in AirTerminal:SingleDuct:VAV:Reheat = BUILDING STORY 3 THERMALZONE 5 VAV TERMINAL\n   ** Warning ** Since Zone Minimum Air Flow Input Method = CONSTANT, input for Fixed Minimum Air Flow Rate will be ignored.\n   **   ~~~   ** Occurs in AirTerminal:SingleDuct:VAV:Reheat = BUILDING STORY 3 THERMALZONE 6 VAV TERMINAL\n   ** Warning ** Since Zone Minimum Air Flow Input Method = CONSTANT, input for Fixed Minimum Air Flow Rate will be ignored.\n   **   ~~~   ** Occurs in AirTerminal:SingleDuct:VAV:Reheat = BUILDING STORY 3 THERMALZONE 7 VAV TERMINAL\n   ** Warning ** Since Zone Minimum Air Flow Input Method = CONSTANT, input for Fixed Minimum Air Flow Rate will be ignored.\n   **   ~~~   ** Occurs in AirTerminal:SingleDuct:VAV:Reheat = BUILDING STORY 4 THERMALZONE VAV TERMINAL\n   ** Warning ** Since Zone Minimum Air Flow Input Method = CONSTANT, input for Fixed Minimum Air Flow Rate will be ignored.\n   **   ~~~   ** Occurs in AirTerminal:SingleDuct:VAV:Reheat = BUILDING STORY 4 THERMALZONE 1 VAV TERMINAL\n   ** Warning ** Since Zone Minimum Air Flow Input Method = CONSTANT, input for Fixed Minimum Air Flow Rate will be ignored.\n   **   ~~~   ** Occurs in AirTerminal:SingleDuct:VAV:Reheat = BUILDING STORY 4 THERMALZONE 2 VAV TERMINAL\n   ** Warning ** Since Zone Minimum Air Flow Input Method = CONSTANT, input for Fixed Minimum Air Flow Rate will be ignored.\n   **   ~~~   ** Occurs in AirTerminal:SingleDuct:VAV:Reheat = BUILDING STORY 4 THERMALZONE 3 VAV TERMINAL\n   ** Warning ** Since Zone Minimum Air Flow Input Method = CONSTANT, input for Fixed Minimum Air Flow Rate will be ignored.\n   **   ~~~   ** Occurs in AirTerminal:SingleDuct:VAV:Reheat = BUILDING STORY 4 THERMALZONE 4 VAV TERMINAL\n   ** Warning ** Since Zone Minimum Air Flow Input Method = CONSTANT, input for Fixed Minimum Air Flow Rate will be ignored.\n   **   ~~~   ** Occurs in AirTerminal:SingleDuct:VAV:Reheat = BUILDING STORY 4 THERMALZONE 5 VAV TERMINAL\n   ** Warning ** Since Zone Minimum Air Flow Input Method = CONSTANT, input for Fixed Minimum Air Flow Rate will be ignored.\n   **   ~~~   ** Occurs in AirTerminal:SingleDuct:VAV:Reheat = BUILDING STORY 4 THERMALZONE 6 VAV TERMINAL\n   ** Warning ** Since Zone Minimum Air Flow Input Method = CONSTANT, input for Fixed Minimum Air Flow Rate will be ignored.\n   **   ~~~   ** Occurs in AirTerminal:SingleDuct:VAV:Reheat = BUILDING STORY 4 THERMALZONE 7 VAV TERMINAL\n   ************* Beginning Plant Sizing Calculations\n   ** Warning ** GetOAControllerInputs: Controller:MechanicalVentilation=\"8 ZONE VAV VENT CONTROLLER\n   **   ~~~   ** Cannot locate a matching DesignSpecification:ZoneAirDistribution object for Zone=\"BUILDING STORY 1 THERMALZONE\".\n   **   ~~~   ** Using default zone air distribution effectiveness of 1.0 for heating and cooling.\n   ** Warning ** GetOAControllerInputs: Controller:MechanicalVentilation=\"8 ZONE VAV VENT CONTROLLER\n   **   ~~~   ** Cannot locate a matching DesignSpecification:ZoneAirDistribution object for Zone=\"BUILDING STORY 1 THERMALZONE 1\".\n   **   ~~~   ** Using default zone air distribution effectiveness of 1.0 for heating and cooling.\n   ** Warning ** GetOAControllerInputs: Controller:MechanicalVentilation=\"8 ZONE VAV VENT CONTROLLER\n   **   ~~~   ** Cannot locate a matching DesignSpecification:ZoneAirDistribution object for Zone=\"BUILDING STORY 1 THERMALZONE 2\".\n   **   ~~~   ** Using default zone air distribution effectiveness of 1.0 for heating and cooling.\n   ** Warning ** GetOAControllerInputs: Controller:MechanicalVentilation=\"8 ZONE VAV VENT CONTROLLER\n   **   ~~~   ** Cannot locate a matching DesignSpecification:ZoneAirDistribution object for Zone=\"BUILDING STORY 1 THERMALZONE 3\".\n   **   ~~~   ** Using default zone air distribution effectiveness of 1.0 for heating and cooling.\n   ** Warning ** GetOAControllerInputs: Controller:MechanicalVentilation=\"8 ZONE VAV VENT CONTROLLER\n   **   ~~~   ** Cannot locate a matching DesignSpecification:ZoneAirDistribution object for Zone=\"BUILDING STORY 1 THERMALZONE 4\".\n   **   ~~~   ** Using default zone air distribution effectiveness of 1.0 for heating and cooling.\n   ** Warning ** GetOAControllerInputs: Controller:MechanicalVentilation=\"8 ZONE VAV VENT CONTROLLER\n   **   ~~~   ** Cannot locate a matching DesignSpecification:ZoneAirDistribution object for Zone=\"BUILDING STORY 1 THERMALZONE 5\".\n   **   ~~~   ** Using default zone air distribution effectiveness of 1.0 for heating and cooling.\n   ** Warning ** GetOAControllerInputs: Controller:MechanicalVentilation=\"8 ZONE VAV VENT CONTROLLER\n   **   ~~~   ** Cannot locate a matching DesignSpecification:ZoneAirDistribution object for Zone=\"BUILDING STORY 1 THERMALZONE 6\".\n   **   ~~~   ** Using default zone air distribution effectiveness of 1.0 for heating and cooling.\n   ** Warning ** GetOAControllerInputs: Controller:MechanicalVentilation=\"8 ZONE VAV VENT CONTROLLER\n   **   ~~~   ** Cannot locate a matching DesignSpecification:ZoneAirDistribution object for Zone=\"BUILDING STORY 1 THERMALZONE 7\".\n   **   ~~~   ** Using default zone air distribution effectiveness of 1.0 for heating and cooling.\n   ** Warning ** GetOAControllerInputs: Controller:MechanicalVentilation=\"8 ZONE VAV 1 VENT CONTROLLER\n   **   ~~~   ** Cannot locate a matching DesignSpecification:ZoneAirDistribution object for Zone=\"BUILDING STORY 2 THERMALZONE\".\n   **   ~~~   ** Using default zone air distribution effectiveness of 1.0 for heating and cooling.\n   ** Warning ** GetOAControllerInputs: Controller:MechanicalVentilation=\"8 ZONE VAV 1 VENT CONTROLLER\n   **   ~~~   ** Cannot locate a matching DesignSpecification:ZoneAirDistribution object for Zone=\"BUILDING STORY 2 THERMALZONE 1\".\n   **   ~~~   ** Using default zone air distribution effectiveness of 1.0 for heating and cooling.\n   ** Warning ** GetOAControllerInputs: Controller:MechanicalVentilation=\"8 ZONE VAV 1 VENT CONTROLLER\n   **   ~~~   ** Cannot locate a matching DesignSpecification:ZoneAirDistribution object for Zone=\"BUILDING STORY 2 THERMALZONE 2\".\n   **   ~~~   ** Using default zone air distribution effectiveness of 1.0 for heating and cooling.\n   ** Warning ** GetOAControllerInputs: Controller:MechanicalVentilation=\"8 ZONE VAV 1 VENT CONTROLLER\n   **   ~~~   ** Cannot locate a matching DesignSpecification:ZoneAirDistribution object for Zone=\"BUILDING STORY 2 THERMALZONE 3\".\n   **   ~~~   ** Using default zone air distribution effectiveness of 1.0 for heating and cooling.\n   ** Warning ** GetOAControllerInputs: Controller:MechanicalVentilation=\"8 ZONE VAV 1 VENT CONTROLLER\n   **   ~~~   ** Cannot locate a matching DesignSpecification:ZoneAirDistribution object for Zone=\"BUILDING STORY 2 THERMALZONE 4\".\n   **   ~~~   ** Using default zone air distribution effectiveness of 1.0 for heating and cooling.\n   ** Warning ** GetOAControllerInputs: Controller:MechanicalVentilation=\"8 ZONE VAV 1 VENT CONTROLLER\n   **   ~~~   ** Cannot locate a matching DesignSpecification:ZoneAirDistribution object for Zone=\"BUILDING STORY 2 THERMALZONE 5\".\n   **   ~~~   ** Using default zone air distribution effectiveness of 1.0 for heating and cooling.\n   ** Warning ** GetOAControllerInputs: Controller:MechanicalVentilation=\"8 ZONE VAV 1 VENT CONTROLLER\n   **   ~~~   ** Cannot locate a matching DesignSpecification:ZoneAirDistribution object for Zone=\"BUILDING STORY 2 THERMALZONE 6\".\n   **   ~~~   ** Using default zone air distribution effectiveness of 1.0 for heating and cooling.\n   ** Warning ** GetOAControllerInputs: Controller:MechanicalVentilation=\"8 ZONE VAV 1 VENT CONTROLLER\n   **   ~~~   ** Cannot locate a matching DesignSpecification:ZoneAirDistribution object for Zone=\"BUILDING STORY 2 THERMALZONE 7\".\n   **   ~~~   ** Using default zone air distribution effectiveness of 1.0 for heating and cooling.\n   ** Warning ** GetOAControllerInputs: Controller:MechanicalVentilation=\"8 ZONE VAV 2 VENT CONTROLLER\n   **   ~~~   ** Cannot locate a matching DesignSpecification:ZoneAirDistribution object for Zone=\"BUILDING STORY 3 THERMALZONE\".\n   **   ~~~   ** Using default zone air distribution effectiveness of 1.0 for heating and cooling.\n   ** Warning ** GetOAControllerInputs: Controller:MechanicalVentilation=\"8 ZONE VAV 2 VENT CONTROLLER\n   **   ~~~   ** Cannot locate a matching DesignSpecification:ZoneAirDistribution object for Zone=\"BUILDING STORY 3 THERMALZONE 1\".\n   **   ~~~   ** Using default zone air distribution effectiveness of 1.0 for heating and cooling.\n   ** Warning ** GetOAControllerInputs: Controller:MechanicalVentilation=\"8 ZONE VAV 2 VENT CONTROLLER\n   **   ~~~   ** Cannot locate a matching DesignSpecification:ZoneAirDistribution object for Zone=\"BUILDING STORY 3 THERMALZONE 2\".\n   **   ~~~   ** Using default zone air distribution effectiveness of 1.0 for heating and cooling.\n   ** Warning ** GetOAControllerInputs: Controller:MechanicalVentilation=\"8 ZONE VAV 2 VENT CONTROLLER\n   **   ~~~   ** Cannot locate a matching DesignSpecification:ZoneAirDistribution object for Zone=\"BUILDING STORY 3 THERMALZONE 3\".\n   **   ~~~   ** Using default zone air distribution effectiveness of 1.0 for heating and cooling.\n   ** Warning ** GetOAControllerInputs: Controller:MechanicalVentilation=\"8 ZONE VAV 2 VENT CONTROLLER\n   **   ~~~   ** Cannot locate a matching DesignSpecification:ZoneAirDistribution object for Zone=\"BUILDING STORY 3 THERMALZONE 4\".\n   **   ~~~   ** Using default zone air distribution effectiveness of 1.0 for heating and cooling.\n   ** Warning ** GetOAControllerInputs: Controller:MechanicalVentilation=\"8 ZONE VAV 2 VENT CONTROLLER\n   **   ~~~   ** Cannot locate a matching DesignSpecification:ZoneAirDistribution object for Zone=\"BUILDING STORY 3 THERMALZONE 5\".\n   **   ~~~   ** Using default zone air distribution effectiveness of 1.0 for heating and cooling.\n   ** Warning ** GetOAControllerInputs: Controller:MechanicalVentilation=\"8 ZONE VAV 2 VENT CONTROLLER\n   **   ~~~   ** Cannot locate a matching DesignSpecification:ZoneAirDistribution object for Zone=\"BUILDING STORY 3 THERMALZONE 6\".\n   **   ~~~   ** Using default zone air distribution effectiveness of 1.0 for heating and cooling.\n   ** Warning ** GetOAControllerInputs: Controller:MechanicalVentilation=\"8 ZONE VAV 2 VENT CONTROLLER\n   **   ~~~   ** Cannot locate a matching DesignSpecification:ZoneAirDistribution object for Zone=\"BUILDING STORY 3 THERMALZONE 7\".\n   **   ~~~   ** Using default zone air distribution effectiveness of 1.0 for heating and cooling.\n   ** Warning ** GetOAControllerInputs: Controller:MechanicalVentilation=\"8 ZONE VAV 3 VENT CONTROLLER\n   **   ~~~   ** Cannot locate a matching DesignSpecification:ZoneAirDistribution object for Zone=\"BUILDING STORY 4 THERMALZONE\".\n   **   ~~~   ** Using default zone air distribution effectiveness of 1.0 for heating and cooling.\n   ** Warning ** GetOAControllerInputs: Controller:MechanicalVentilation=\"8 ZONE VAV 3 VENT CONTROLLER\n   **   ~~~   ** Cannot locate a matching DesignSpecification:ZoneAirDistribution object for Zone=\"BUILDING STORY 4 THERMALZONE 1\".\n   **   ~~~   ** Using default zone air distribution effectiveness of 1.0 for heating and cooling.\n   ** Warning ** GetOAControllerInputs: Controller:MechanicalVentilation=\"8 ZONE VAV 3 VENT CONTROLLER\n   **   ~~~   ** Cannot locate a matching DesignSpecification:ZoneAirDistribution object for Zone=\"BUILDING STORY 4 THERMALZONE 2\".\n   **   ~~~   ** Using default zone air distribution effectiveness of 1.0 for heating and cooling.\n   ** Warning ** GetOAControllerInputs: Controller:MechanicalVentilation=\"8 ZONE VAV 3 VENT CONTROLLER\n   **   ~~~   ** Cannot locate a matching DesignSpecification:ZoneAirDistribution object for Zone=\"BUILDING STORY 4 THERMALZONE 3\".\n   **   ~~~   ** Using default zone air distribution effectiveness of 1.0 for heating and cooling.\n   ** Warning ** GetOAControllerInputs: Controller:MechanicalVentilation=\"8 ZONE VAV 3 VENT CONTROLLER\n   **   ~~~   ** Cannot locate a matching DesignSpecification:ZoneAirDistribution object for Zone=\"BUILDING STORY 4 THERMALZONE 4\".\n   **   ~~~   ** Using default zone air distribution effectiveness of 1.0 for heating and cooling.\n   ** Warning ** GetOAControllerInputs: Controller:MechanicalVentilation=\"8 ZONE VAV 3 VENT CONTROLLER\n   **   ~~~   ** Cannot locate a matching DesignSpecification:ZoneAirDistribution object for Zone=\"BUILDING STORY 4 THERMALZONE 5\".\n   **   ~~~   ** Using default zone air distribution effectiveness of 1.0 for heating and cooling.\n   ** Warning ** GetOAControllerInputs: Controller:MechanicalVentilation=\"8 ZONE VAV 3 VENT CONTROLLER\n   **   ~~~   ** Cannot locate a matching DesignSpecification:ZoneAirDistribution object for Zone=\"BUILDING STORY 4 THERMALZONE 6\".\n   **   ~~~   ** Using default zone air distribution effectiveness of 1.0 for heating and cooling.\n   ** Warning ** GetOAControllerInputs: Controller:MechanicalVentilation=\"8 ZONE VAV 3 VENT CONTROLLER\n   **   ~~~   ** Cannot locate a matching DesignSpecification:ZoneAirDistribution object for Zone=\"BUILDING STORY 4 THERMALZONE 7\".\n   **   ~~~   ** Using default zone air distribution effectiveness of 1.0 for heating and cooling.\n   ** Warning ** In calculating the design coil UA for Coil:Cooling:Water 8 ZONE VAV CLG COIL\n   **   ~~~   ** the coil bypass factor is unrealistically large;\n   **   ~~~   ** The initial design conditions are: Tair,in = 24.2764\n   **   ~~~   **                                    Wair,in = 9.741810E-003\n   **   ~~~   **                                    Twater,in = 6.6667\n   **   ~~~   **                                    Tair,out = 10.9191\n   **   ~~~   **                                    Wair,out = 8.500000E-003\n   ** Warning ** In calculating the design coil UA for Coil:Cooling:Water 8 ZONE VAV 1 CLG COIL\n   **   ~~~   ** the coil bypass factor is unrealistically large;\n   **   ~~~   ** The initial design conditions are: Tair,in = 24.2207\n   **   ~~~   **                                    Wair,in = 1.004047E-002\n   **   ~~~   **                                    Twater,in = 6.6667\n   **   ~~~   **                                    Tair,out = 10.9201\n   **   ~~~   **                                    Wair,out = 8.500000E-003\n   ** Warning ** In calculating the design coil UA for Coil:Cooling:Water 8 ZONE VAV 2 CLG COIL\n   **   ~~~   ** the coil bypass factor is unrealistically large;\n   **   ~~~   ** The initial design conditions are: Tair,in = 28.0141\n   **   ~~~   **                                    Wair,in = 1.210013E-002\n   **   ~~~   **                                    Twater,in = 6.6667\n   **   ~~~   **                                    Tair,out = 10.9192\n   **   ~~~   **                                    Wair,out = 8.500000E-003\n   ** Warning ** In calculating the design coil UA for Coil:Cooling:Water 8 ZONE VAV 3 CLG COIL\n   **   ~~~   ** the coil bypass factor is unrealistically large;\n   **   ~~~   ** The initial design conditions are: Tair,in = 28.5953\n   **   ~~~   **                                    Wair,in = 1.259421E-002\n   **   ~~~   **                                    Twater,in = 6.6667\n   **   ~~~   **                                    Tair,out = 10.9209\n   **   ~~~   **                                    Wair,out = 8.500000E-003\n   ** Warning ** Check input. Pump nominal power or motor efficiency is set to 0, for pump=BOOSTER WATER LOOP PUMP\n   ** Warning ** Meter:Custom=\"HEATREJECTION:OTHERFUELS\", invalid Output Variable or Meter Name=\"HEATREJECTION:GASOLINE\".\n   **   ~~~   ** ...will not be shown with the Meter results.\n   ** Warning ** Meter:Custom=\"HEATREJECTION:OTHERFUELS\", invalid Output Variable or Meter Name=\"HEATREJECTION:DIESEL\".\n   **   ~~~   ** ...will not be shown with the Meter results.\n   ** Warning ** Meter:Custom=\"HEATREJECTION:OTHERFUELS\", invalid Output Variable or Meter Name=\"HEATREJECTION:COAL\".\n   **   ~~~   ** ...will not be shown with the Meter results.\n   ** Warning ** Meter:Custom=\"HEATREJECTION:OTHERFUELS\", invalid Output Variable or Meter Name=\"HEATREJECTION:FUELOILNO1\".\n   **   ~~~   ** ...will not be shown with the Meter results.\n   ** Warning ** Meter:Custom=\"HEATREJECTION:OTHERFUELS\", invalid Output Variable or Meter Name=\"HEATREJECTION:OTHERFUEL1\".\n   **   ~~~   ** ...will not be shown with the Meter results.\n   ** Warning ** Meter:Custom=\"HEATREJECTION:OTHERFUELS\", invalid Output Variable or Meter Name=\"HEATREJECTION:STEAM\".\n   **   ~~~   ** ...will not be shown with the Meter results.\n   ** Warning ** Meter:Custom=\"HEATREJECTION:OTHERFUELS\", no items assigned \n   **   ~~~   ** ...will not be shown with the Meter results. This may be caused by a Meter:Custom be assigned to another Meter:Custom.\n   ** Warning ** Meter:Custom=\"HEATING:OTHERFUELS\", invalid Output Variable or Meter Name=\"HEATING:GASOLINE\".\n   **   ~~~   ** ...will not be shown with the Meter results.\n   ** Warning ** Meter:Custom=\"HEATING:OTHERFUELS\", invalid Output Variable or Meter Name=\"HEATING:DIESEL\".\n   **   ~~~   ** ...will not be shown with the Meter results.\n   ** Warning ** Meter:Custom=\"HEATING:OTHERFUELS\", invalid Output Variable or Meter Name=\"HEATING:COAL\".\n   **   ~~~   ** ...will not be shown with the Meter results.\n   ** Warning ** Meter:Custom=\"HEATING:OTHERFUELS\", invalid Output Variable or Meter Name=\"HEATING:FUELOILNO1\".\n   **   ~~~   ** ...will not be shown with the Meter results.\n   ** Warning ** Meter:Custom=\"HEATING:OTHERFUELS\", invalid Output Variable or Meter Name=\"HEATING:OTHERFUEL1\".\n   **   ~~~   ** ...will not be shown with the Meter results.\n   ** Warning ** Meter:Custom=\"HEATING:OTHERFUELS\", invalid Output Variable or Meter Name=\"HEATING:STEAM\".\n   **   ~~~   ** ...will not be shown with the Meter results.\n   ** Warning ** Meter:Custom=\"HEATING:OTHERFUELS\", no items assigned \n   **   ~~~   ** ...will not be shown with the Meter results. This may be caused by a Meter:Custom be assigned to another Meter:Custom.\n   ** Warning ** Meter:Custom=\"WATERSYSTEMS:OTHERFUELS\", invalid Output Variable or Meter Name=\"WATERSYSTEMS:GASOLINE\".\n   **   ~~~   ** ...will not be shown with the Meter results.\n   ** Warning ** Meter:Custom=\"WATERSYSTEMS:OTHERFUELS\", invalid Output Variable or Meter Name=\"WATERSYSTEMS:DIESEL\".\n   **   ~~~   ** ...will not be shown with the Meter results.\n   ** Warning ** Meter:Custom=\"WATERSYSTEMS:OTHERFUELS\", invalid Output Variable or Meter Name=\"WATERSYSTEMS:COAL\".\n   **   ~~~   ** ...will not be shown with the Meter results.\n   ** Warning ** Meter:Custom=\"WATERSYSTEMS:OTHERFUELS\", invalid Output Variable or Meter Name=\"WATERSYSTEMS:FUELOILNO1\".\n   **   ~~~   ** ...will not be shown with the Meter results.\n   ** Warning ** Meter:Custom=\"WATERSYSTEMS:OTHERFUELS\", invalid Output Variable or Meter Name=\"WATERSYSTEMS:OTHERFUEL1\".\n   **   ~~~   ** ...will not be shown with the Meter results.\n   ** Warning ** Meter:Custom=\"WATERSYSTEMS:OTHERFUELS\", invalid Output Variable or Meter Name=\"WATERSYSTEMS:STEAM\".\n   **   ~~~   ** ...will not be shown with the Meter results.\n   ** Warning ** Meter:Custom=\"WATERSYSTEMS:OTHERFUELS\", no items assigned \n   **   ~~~   ** ...will not be shown with the Meter results. This may be caused by a Meter:Custom be assigned to another Meter:Custom.\n   ** Warning ** Meter:Custom=\"INTERIOREQUIPMENT:OTHERFUELS\", invalid Output Variable or Meter Name=\"INTERIOREQUIPMENT:GASOLINE\".\n   **   ~~~   ** ...will not be shown with the Meter results.\n   ** Warning ** Meter:Custom=\"INTERIOREQUIPMENT:OTHERFUELS\", invalid Output Variable or Meter Name=\"INTERIOREQUIPMENT:DIESEL\".\n   **   ~~~   ** ...will not be shown with the Meter results.\n   ** Warning ** Meter:Custom=\"INTERIOREQUIPMENT:OTHERFUELS\", invalid Output Variable or Meter Name=\"INTERIOREQUIPMENT:COAL\".\n   **   ~~~   ** ...will not be shown with the Meter results.\n   ** Warning ** Meter:Custom=\"INTERIOREQUIPMENT:OTHERFUELS\", invalid Output Variable or Meter Name=\"INTERIOREQUIPMENT:FUELOILNO1\".\n   **   ~~~   ** ...will not be shown with the Meter results.\n   ** Warning ** Meter:Custom=\"INTERIOREQUIPMENT:OTHERFUELS\", invalid Output Variable or Meter Name=\"INTERIOREQUIPMENT:OTHERFUEL1\".\n   **   ~~~   ** ...will not be shown with the Meter results.\n   ** Warning ** Meter:Custom=\"INTERIOREQUIPMENT:OTHERFUELS\", invalid Output Variable or Meter Name=\"INTERIOREQUIPMENT:STEAM\".\n   **   ~~~   ** ...will not be shown with the Meter results.\n   ** Warning ** Meter:Custom=\"INTERIOREQUIPMENT:OTHERFUELS\", no items assigned \n   **   ~~~   ** ...will not be shown with the Meter results. This may be caused by a Meter:Custom be assigned to another Meter:Custom.\n   ** Warning ** Meter:Custom=\"OTHERFUELS:FACILITY\", invalid Output Variable or Meter Name=\"HEATREJECTION:GASOLINE\".\n   **   ~~~   ** ...will not be shown with the Meter results.\n   ** Warning ** Meter:Custom=\"OTHERFUELS:FACILITY\", invalid Output Variable or Meter Name=\"HEATREJECTION:DIESEL\".\n   **   ~~~   ** ...will not be shown with the Meter results.\n   ** Warning ** Meter:Custom=\"OTHERFUELS:FACILITY\", invalid Output Variable or Meter Name=\"HEATREJECTION:COAL\".\n   **   ~~~   ** ...will not be shown with the Meter results.\n   ** Warning ** Meter:Custom=\"OTHERFUELS:FACILITY\", invalid Output Variable or Meter Name=\"HEATREJECTION:FUELOILNO1\".\n   **   ~~~   ** ...will not be shown with the Meter results.\n   ** Warning ** Meter:Custom=\"OTHERFUELS:FACILITY\", invalid Output Variable or Meter Name=\"HEATREJECTION:OTHERFUEL1\".\n   **   ~~~   ** ...will not be shown with the Meter results.\n   ** Warning ** Meter:Custom=\"OTHERFUELS:FACILITY\", invalid Output Variable or Meter Name=\"HEATREJECTION:STEAM\".\n   **   ~~~   ** ...will not be shown with the Meter results.\n   ** Warning ** Meter:Custom=\"OTHERFUELS:FACILITY\", invalid Output Variable or Meter Name=\"HEATING:GASOLINE\".\n   **   ~~~   ** ...will not be shown with the Meter results.\n   ** Warning ** Meter:Custom=\"OTHERFUELS:FACILITY\", invalid Output Variable or Meter Name=\"HEATING:DIESEL\".\n   **   ~~~   ** ...will not be shown with the Meter results.\n   ** Warning ** Meter:Custom=\"OTHERFUELS:FACILITY\", invalid Output Variable or Meter Name=\"HEATING:COAL\".\n   **   ~~~   ** ...will not be shown with the Meter results.\n   ** Warning ** Meter:Custom=\"OTHERFUELS:FACILITY\", invalid Output Variable or Meter Name=\"HEATING:FUELOILNO1\".\n   **   ~~~   ** ...will not be shown with the Meter results.\n   ** Warning ** Meter:Custom=\"OTHERFUELS:FACILITY\", invalid Output Variable or Meter Name=\"HEATING:OTHERFUEL1\".\n   **   ~~~   ** ...will not be shown with the Meter results.\n   ** Warning ** Meter:Custom=\"OTHERFUELS:FACILITY\", invalid Output Variable or Meter Name=\"HEATING:STEAM\".\n   **   ~~~   ** ...will not be shown with the Meter results.\n   ** Warning ** Meter:Custom=\"OTHERFUELS:FACILITY\", invalid Output Variable or Meter Name=\"WATERSYSTEMS:GASOLINE\".\n   **   ~~~   ** ...will not be shown with the Meter results.\n   ** Warning ** Meter:Custom=\"OTHERFUELS:FACILITY\", invalid Output Variable or Meter Name=\"WATERSYSTEMS:DIESEL\".\n   **   ~~~   ** ...will not be shown with the Meter results.\n   ** Warning ** Meter:Custom=\"OTHERFUELS:FACILITY\", invalid Output Variable or Meter Name=\"WATERSYSTEMS:COAL\".\n   **   ~~~   ** ...will not be shown with the Meter results.\n   ** Warning ** Meter:Custom=\"OTHERFUELS:FACILITY\", invalid Output Variable or Meter Name=\"WATERSYSTEMS:FUELOILNO1\".\n   **   ~~~   ** ...will not be shown with the Meter results.\n   ** Warning ** Meter:Custom=\"OTHERFUELS:FACILITY\", invalid Output Variable or Meter Name=\"WATERSYSTEMS:OTHERFUEL1\".\n   **   ~~~   ** ...will not be shown with the Meter results.\n   ** Warning ** Meter:Custom=\"OTHERFUELS:FACILITY\", invalid Output Variable or Meter Name=\"WATERSYSTEMS:STEAM\".\n   **   ~~~   ** ...will not be shown with the Meter results.\n   ** Warning ** Meter:Custom=\"OTHERFUELS:FACILITY\", invalid Output Variable or Meter Name=\"INTERIOREQUIPMENT:GASOLINE\".\n   **   ~~~   ** ...will not be shown with the Meter results.\n   ** Warning ** Meter:Custom=\"OTHERFUELS:FACILITY\", invalid Output Variable or Meter Name=\"INTERIOREQUIPMENT:DIESEL\".\n   **   ~~~   ** ...will not be shown with the Meter results.\n   ** Warning ** Meter:Custom=\"OTHERFUELS:FACILITY\", invalid Output Variable or Meter Name=\"INTERIOREQUIPMENT:COAL\".\n   **   ~~~   ** ...will not be shown with the Meter results.\n   ** Warning ** Meter:Custom=\"OTHERFUELS:FACILITY\", invalid Output Variable or Meter Name=\"INTERIOREQUIPMENT:FUELOILNO1\".\n   **   ~~~   ** ...will not be shown with the Meter results.\n   ** Warning ** Meter:Custom=\"OTHERFUELS:FACILITY\", invalid Output Variable or Meter Name=\"INTERIOREQUIPMENT:OTHERFUEL1\".\n   **   ~~~   ** ...will not be shown with the Meter results.\n   ** Warning ** Meter:Custom=\"OTHERFUELS:FACILITY\", invalid Output Variable or Meter Name=\"INTERIOREQUIPMENT:STEAM\".\n   **   ~~~   ** ...will not be shown with the Meter results.\n   ** Warning ** Meter:Custom=\"OTHERFUELS:FACILITY\", no items assigned \n   **   ~~~   ** ...will not be shown with the Meter results. This may be caused by a Meter:Custom be assigned to another Meter:Custom.\n   ** Warning ** Output:Meter: invalid Key Name=\"EXTERIORLIGHTING:ELECTRICITY\" - not found.\n   ** Warning ** Output:Meter: invalid Key Name=\"GAS:FACILITY\" - not found.\n   ** Warning ** Output:Meter: invalid Key Name=\"EXTERIORLIGHTING:ELECTRICITY\" - not found.\n   ** Warning ** Output:Meter: invalid Key Name=\"GAS:FACILITY\" - not found.\n   ** Warning ** Output:Meter: invalid Key Name=\"HEATING:FUELOILNO2\" - not found.\n   ** Warning ** Output:Meter: invalid Key Name=\"HEATING:PROPANE\" - not found.\n   ** Warning ** Output:Meter: invalid Key Name=\"HEATING:DISTRICTCOOLING\" - not found.\n   ** Warning ** Output:Meter: invalid Key Name=\"HEATING:DISTRICTHEATING\" - not found.\n   ** Warning ** Output:Meter: invalid Key Name=\"HEATING:WATER\" - not found.\n   ** Warning ** Output:Meter: invalid Key Name=\"COOLING:NATURALGAS\" - not found.\n   ** Warning ** Output:Meter: invalid Key Name=\"COOLING:FUELOILNO2\" - not found.\n   ** Warning ** Output:Meter: invalid Key Name=\"COOLING:PROPANE\" - not found.\n   ** Warning ** Output:Meter: invalid Key Name=\"COOLING:DISTRICTCOOLING\" - not found.\n   ** Warning ** Output:Meter: invalid Key Name=\"COOLING:DISTRICTHEATING\" - not found.\n   ** Warning ** Output:Meter: invalid Key Name=\"COOLING:WATER\" - not found.\n   ** Warning ** Output:Meter: invalid Key Name=\"INTERIORLIGHTS:NATURALGAS\" - not found.\n   ** Warning ** Output:Meter: invalid Key Name=\"INTERIORLIGHTS:FUELOILNO2\" - not found.\n   ** Warning ** Output:Meter: invalid Key Name=\"INTERIORLIGHTS:PROPANE\" - not found.\n   ** Warning ** Output:Meter: invalid Key Name=\"INTERIORLIGHTS:DISTRICTCOOLING\" - not found.\n   ** Warning ** Output:Meter: invalid Key Name=\"INTERIORLIGHTS:DISTRICTHEATING\" - not found.\n   ** Warning ** Output:Meter: invalid Key Name=\"INTERIORLIGHTS:WATER\" - not found.\n   ** Warning ** Output:Meter: invalid Key Name=\"EXTERIORLIGHTS:NATURALGAS\" - not found.\n   ** Warning ** Output:Meter: invalid Key Name=\"EXTERIORLIGHTS:FUELOILNO2\" - not found.\n   ** Warning ** Output:Meter: invalid Key Name=\"EXTERIORLIGHTS:PROPANE\" - not found.\n   ** Warning ** Output:Meter: invalid Key Name=\"EXTERIORLIGHTS:DISTRICTCOOLING\" - not found.\n   ** Warning ** Output:Meter: invalid Key Name=\"EXTERIORLIGHTS:DISTRICTHEATING\" - not found.\n   ** Warning ** Output:Meter: invalid Key Name=\"EXTERIORLIGHTS:WATER\" - not found.\n   ** Warning ** Output:Meter: invalid Key Name=\"INTERIOREQUIPMENT:FUELOILNO2\" - not found.\n   ** Warning ** Output:Meter: invalid Key Name=\"INTERIOREQUIPMENT:PROPANE\" - not found.\n   ** Warning ** Output:Meter: invalid Key Name=\"INTERIOREQUIPMENT:DISTRICTCOOLING\" - not found.\n   ** Warning ** Output:Meter: invalid Key Name=\"INTERIOREQUIPMENT:DISTRICTHEATING\" - not found.\n   ** Warning ** Output:Meter: invalid Key Name=\"INTERIOREQUIPMENT:WATER\" - not found.\n   ** Warning ** Output:Meter: invalid Key Name=\"EXTERIOREQUIPMENT:ELECTRICITY\" - not found.\n   ** Warning ** Output:Meter: invalid Key Name=\"EXTERIOREQUIPMENT:NATURALGAS\" - not found.\n   ** Warning ** Output:Meter: invalid Key Name=\"EXTERIOREQUIPMENT:FUELOILNO2\" - not found.\n   ** Warning ** Output:Meter: invalid Key Name=\"EXTERIOREQUIPMENT:PROPANE\" - not found.\n   ** Warning ** Output:Meter: invalid Key Name=\"EXTERIOREQUIPMENT:DISTRICTCOOLING\" - not found.\n   ** Warning ** Output:Meter: invalid Key Name=\"EXTERIOREQUIPMENT:DISTRICTHEATING\" - not found.\n   ** Warning ** Output:Meter: invalid Key Name=\"EXTERIOREQUIPMENT:WATER\" - not found.\n   ** Warning ** Output:Meter: invalid Key Name=\"FANS:NATURALGAS\" - not found.\n   ** Warning ** Output:Meter: invalid Key Name=\"FANS:FUELOILNO2\" - not found.\n   ** Warning ** Output:Meter: invalid Key Name=\"FANS:PROPANE\" - not found.\n   ** Warning ** Output:Meter: invalid Key Name=\"FANS:DISTRICTCOOLING\" - not found.\n   ** Warning ** Output:Meter: invalid Key Name=\"FANS:DISTRICTHEATING\" - not found.\n   ** Warning ** Output:Meter: invalid Key Name=\"FANS:WATER\" - not found.\n   ** Warning ** Output:Meter: invalid Key Name=\"PUMPS:NATURALGAS\" - not found.\n   ** Warning ** Output:Meter: invalid Key Name=\"PUMPS:FUELOILNO2\" - not found.\n   ** Warning ** Output:Meter: invalid Key Name=\"PUMPS:PROPANE\" - not found.\n   ** Warning ** Output:Meter: invalid Key Name=\"PUMPS:DISTRICTCOOLING\" - not found.\n   ** Warning ** Output:Meter: invalid Key Name=\"PUMPS:DISTRICTHEATING\" - not found.\n   ** Warning ** Output:Meter: invalid Key Name=\"PUMPS:WATER\" - not found.\n   ** Warning ** Output:Meter: invalid Key Name=\"HEATREJECTION:NATURALGAS\" - not found.\n   ** Warning ** Output:Meter: invalid Key Name=\"HEATREJECTION:FUELOILNO2\" - not found.\n   ** Warning ** Output:Meter: invalid Key Name=\"HEATREJECTION:PROPANE\" - not found.\n   ** Warning ** Output:Meter: invalid Key Name=\"HEATREJECTION:DISTRICTCOOLING\" - not found.\n   ** Warning ** Output:Meter: invalid Key Name=\"HEATREJECTION:DISTRICTHEATING\" - not found.\n   ** Warning ** Output:Meter: invalid Key Name=\"HUMIDIFIER:ELECTRICITY\" - not found.\n   ** Warning ** Output:Meter: invalid Key Name=\"HUMIDIFIER:NATURALGAS\" - not found.\n   ** Warning ** Output:Meter: invalid Key Name=\"HUMIDIFIER:FUELOILNO2\" - not found.\n   ** Warning ** Output:Meter: invalid Key Name=\"HUMIDIFIER:PROPANE\" - not found.\n   ** Warning ** Output:Meter: invalid Key Name=\"HUMIDIFIER:DISTRICTCOOLING\" - not found.\n   ** Warning ** Output:Meter: invalid Key Name=\"HUMIDIFIER:DISTRICTHEATING\" - not found.\n   ** Warning ** Output:Meter: invalid Key Name=\"HUMIDIFIER:WATER\" - not found.\n   ** Warning ** Output:Meter: invalid Key Name=\"HEATRECOVERY:NATURALGAS\" - not found.\n   ** Warning ** Output:Meter: invalid Key Name=\"HEATRECOVERY:FUELOILNO2\" - not found.\n   ** Warning ** Output:Meter: invalid Key Name=\"HEATRECOVERY:PROPANE\" - not found.\n   ** Warning ** Output:Meter: invalid Key Name=\"HEATRECOVERY:DISTRICTCOOLING\" - not found.\n   ** Warning ** Output:Meter: invalid Key Name=\"HEATRECOVERY:DISTRICTHEATING\" - not found.\n   ** Warning ** Output:Meter: invalid Key Name=\"HEATRECOVERY:WATER\" - not found.\n   ** Warning ** Output:Meter: invalid Key Name=\"WATERSYSTEMS:FUELOILNO2\" - not found.\n   ** Warning ** Output:Meter: invalid Key Name=\"WATERSYSTEMS:PROPANE\" - not found.\n   ** Warning ** Output:Meter: invalid Key Name=\"WATERSYSTEMS:DISTRICTCOOLING\" - not found.\n   ** Warning ** Output:Meter: invalid Key Name=\"WATERSYSTEMS:DISTRICTHEATING\" - not found.\n   ** Warning ** Output:Meter: invalid Key Name=\"REFRIGERATION:ELECTRICITY\" - not found.\n   ** Warning ** Output:Meter: invalid Key Name=\"REFRIGERATION:NATURALGAS\" - not found.\n   ** Warning ** Output:Meter: invalid Key Name=\"REFRIGERATION:FUELOILNO2\" - not found.\n   ** Warning ** Output:Meter: invalid Key Name=\"REFRIGERATION:PROPANE\" - not found.\n   ** Warning ** Output:Meter: invalid Key Name=\"REFRIGERATION:DISTRICTCOOLING\" - not found.\n   ** Warning ** Output:Meter: invalid Key Name=\"REFRIGERATION:DISTRICTHEATING\" - not found.\n   ** Warning ** Output:Meter: invalid Key Name=\"REFRIGERATION:WATER\" - not found.\n   ** Warning ** Output:Meter: invalid Key Name=\"GENERATORS:ELECTRICITY\" - not found.\n   ** Warning ** Output:Meter: invalid Key Name=\"GENERATORS:NATURALGAS\" - not found.\n   ** Warning ** Output:Meter: invalid Key Name=\"GENERATORS:FUELOILNO2\" - not found.\n   ** Warning ** Output:Meter: invalid Key Name=\"GENERATORS:PROPANE\" - not found.\n   ** Warning ** Output:Meter: invalid Key Name=\"GENERATORS:DISTRICTCOOLING\" - not found.\n   ** Warning ** Output:Meter: invalid Key Name=\"GENERATORS:DISTRICTHEATING\" - not found.\n   ** Warning ** Output:Meter: invalid Key Name=\"GENERATORS:WATER\" - not found.\n   ** Warning ** Output:Meter: invalid Key Name=\"FUELOILNO2:FACILITY\" - not found.\n   ** Warning ** Output:Meter: invalid Key Name=\"PROPANE:FACILITY\" - not found.\n   ** Warning ** Output:Meter: invalid Key Name=\"DISTRICTCOOLING:FACILITY\" - not found.\n   ** Warning ** Output:Meter: invalid Key Name=\"DISTRICTHEATING:FACILITY\" - not found.\n   ** Warning ** Output:Meter: invalid Key Name=\"HEATREJECTION:GASOLINE\" - not found.\n   ** Warning ** Output:Meter: invalid Key Name=\"HEATREJECTION:DIESEL\" - not found.\n   ** Warning ** Output:Meter: invalid Key Name=\"HEATREJECTION:COAL\" - not found.\n   ** Warning ** Output:Meter: invalid Key Name=\"HEATREJECTION:FUELOILNO1\" - not found.\n   ** Warning ** Output:Meter: invalid Key Name=\"HEATREJECTION:OTHERFUEL1\" - not found.\n   ** Warning ** Output:Meter: invalid Key Name=\"HEATREJECTION:STEAM\" - not found.\n   ** Warning ** Output:Meter: invalid Key Name=\"HEATREJECTION:OTHERFUELS\" - not found.\n   ** Warning ** Output:Meter: invalid Key Name=\"HEATING:GASOLINE\" - not found.\n   ** Warning ** Output:Meter: invalid Key Name=\"HEATING:DIESEL\" - not found.\n   ** Warning ** Output:Meter: invalid Key Name=\"HEATING:COAL\" - not found.\n   ** Warning ** Output:Meter: invalid Key Name=\"HEATING:FUELOILNO1\" - not found.\n   ** Warning ** Output:Meter: invalid Key Name=\"HEATING:OTHERFUEL1\" - not found.\n   ** Warning ** Output:Meter: invalid Key Name=\"HEATING:STEAM\" - not found.\n   ** Warning ** Output:Meter: invalid Key Name=\"HEATING:OTHERFUELS\" - not found.\n   ** Warning ** Output:Meter: invalid Key Name=\"WATERSYSTEMS:GASOLINE\" - not found.\n   ** Warning ** Output:Meter: invalid Key Name=\"WATERSYSTEMS:DIESEL\" - not found.\n   ** Warning ** Output:Meter: invalid Key Name=\"WATERSYSTEMS:COAL\" - not found.\n   ** Warning ** Output:Meter: invalid Key Name=\"WATERSYSTEMS:FUELOILNO1\" - not found.\n   ** Warning ** Output:Meter: invalid Key Name=\"WATERSYSTEMS:OTHERFUEL1\" - not found.\n   ** Warning ** Output:Meter: invalid Key Name=\"WATERSYSTEMS:STEAM\" - not found.\n   ** Warning ** Output:Meter: invalid Key Name=\"WATERSYSTEMS:OTHERFUELS\" - not found.\n   ** Warning ** Output:Meter: invalid Key Name=\"INTERIOREQUIPMENT:GASOLINE\" - not found.\n   ** Warning ** Output:Meter: invalid Key Name=\"INTERIOREQUIPMENT:DIESEL\" - not found.\n   ** Warning ** Output:Meter: invalid Key Name=\"INTERIOREQUIPMENT:COAL\" - not found.\n   ** Warning ** Output:Meter: invalid Key Name=\"INTERIOREQUIPMENT:FUELOILNO1\" - not found.\n   ** Warning ** Output:Meter: invalid Key Name=\"INTERIOREQUIPMENT:OTHERFUEL1\" - not found.\n   ** Warning ** Output:Meter: invalid Key Name=\"INTERIOREQUIPMENT:STEAM\" - not found.\n   ** Warning ** Output:Meter: invalid Key Name=\"INTERIOREQUIPMENT:OTHERFUELS\" - not found.\n   ** Warning ** Output:Meter: invalid Key Name=\"OTHERFUELS:FACILITY\" - not found.\n   ** Warning ** Output:Meter:MeterFileOnly requested for \"Electricity:Facility\" (TimeStep), already on \"Output:Meter\". Will report to both eplusout.eso and eplusout.mtr\n   ** Warning ** Output:Meter:MeterFileOnly: invalid Key Name=\"ELECTRICITYPRODUCED:FACILITY\" - not found.\n   ** Warning ** Output:Meter:MeterFileOnly requested for \"NaturalGas:Facility\" (TimeStep), already on \"Output:Meter\". Will report to both eplusout.eso and eplusout.mtr\n   ** Warning ** Output:Meter:MeterFileOnly: invalid Key Name=\"DISTRICTCOOLING:FACILITY\" - not found.\n   ** Warning ** Output:Meter:MeterFileOnly: invalid Key Name=\"DISTRICTHEATING:FACILITY\" - not found.\n   ************* Testing Individual Branch Integrity\n   ************* All Branches passed integrity testing\n   ************* Testing Individual Supply Air Path Integrity\n   ************* All Supply Air Paths passed integrity testing\n   ************* Testing Individual Return Air Path Integrity\n   ************* All Return Air Paths passed integrity testing\n   ************* No node connection errors were found.\n   ** Warning ** CalcOAController: Minimum OA fraction > Mechanical Ventilation Controller request for Controller:OutdoorAir=8 ZONE VAV OA CONTROLLER, Min OA fraction is used.\n   **   ~~~   ** This may be overriding desired ventilation controls. Check inputs for Minimum Outdoor Air Flow Rate, Minimum Outdoor Air Schedule Name and Controller:MechanicalVentilation\n   **   ~~~   ** Minimum OA fraction = 0.1643, Mech Vent OA fraction = 9.8578E-002\n   **   ~~~   **  Environment=BUFFALO NIAGARA INTL AP ANN CLG .4% CONDNS DB=>MWB 1 HVAC Sizing Pass 1, at Simulation time=07/21 00:00 - 01:00\n   ** Warning ** CalcOAController: Minimum OA fraction > Mechanical Ventilation Controller request for Controller:OutdoorAir=8 ZONE VAV 1 OA CONTROLLER, Min OA fraction is used.\n   **   ~~~   ** This may be overriding desired ventilation controls. Check inputs for Minimum Outdoor Air Flow Rate, Minimum Outdoor Air Schedule Name and Controller:MechanicalVentilation\n   **   ~~~   ** Minimum OA fraction = 0.2032, Mech Vent OA fraction = 0.1219\n   **   ~~~   **  Environment=BUFFALO NIAGARA INTL AP ANN CLG .4% CONDNS DB=>MWB 1 HVAC Sizing Pass 1, at Simulation time=07/21 00:00 - 01:00\n   ** Warning ** CalcOAController: Minimum OA fraction > Mechanical Ventilation Controller request for Controller:OutdoorAir=8 ZONE VAV 2 OA CONTROLLER, Min OA fraction is used.\n   **   ~~~   ** This may be overriding desired ventilation controls. Check inputs for Minimum Outdoor Air Flow Rate, Minimum Outdoor Air Schedule Name and Controller:MechanicalVentilation\n   **   ~~~   ** Minimum OA fraction = 0.4384, Mech Vent OA fraction = 0.2630\n   **   ~~~   **  Environment=BUFFALO NIAGARA INTL AP ANN CLG .4% CONDNS DB=>MWB 1 HVAC Sizing Pass 1, at Simulation time=07/21 00:00 - 01:00\n   ** Warning ** CalcOAController: Minimum OA fraction > Mechanical Ventilation Controller request for Controller:OutdoorAir=8 ZONE VAV 3 OA CONTROLLER, Min OA fraction is used.\n   **   ~~~   ** This may be overriding desired ventilation controls. Check inputs for Minimum Outdoor Air Flow Rate, Minimum Outdoor Air Schedule Name and Controller:MechanicalVentilation\n   **   ~~~   ** Minimum OA fraction = 0.6796, Mech Vent OA fraction = 0.4078\n   **   ~~~   **  Environment=BUFFALO NIAGARA INTL AP ANN CLG .4% CONDNS DB=>MWB 1 HVAC Sizing Pass 1, at Simulation time=07/21 00:00 - 01:00\n   ** Warning ** In Output:Table:Monthly 'BUILDING ENERGY PERFORMANCE - ELECTRICITY' invalid Variable or Meter Name 'EXTERIOREQUIPMENT:ELECTRICITY'\n   ** Warning ** In Output:Table:Monthly 'BUILDING ENERGY PERFORMANCE - ELECTRICITY' invalid Variable or Meter Name 'HUMIDIFIER:ELECTRICITY'\n   ** Warning ** In Output:Table:Monthly 'BUILDING ENERGY PERFORMANCE - ELECTRICITY' invalid Variable or Meter Name 'COGENERATION:ELECTRICITY'\n   ** Warning ** In Output:Table:Monthly 'BUILDING ENERGY PERFORMANCE - ELECTRICITY' invalid Variable or Meter Name 'REFRIGERATION:ELECTRICITY'\n   ** Warning ** In Output:Table:Monthly 'BUILDING ENERGY PERFORMANCE - NATURAL GAS' invalid Variable or Meter Name 'EXTERIOREQUIPMENT:NATURALGAS'\n   ** Warning ** In Output:Table:Monthly 'BUILDING ENERGY PERFORMANCE - NATURAL GAS' invalid Variable or Meter Name 'COOLING:NATURALGAS'\n   ** Warning ** In Output:Table:Monthly 'BUILDING ENERGY PERFORMANCE - NATURAL GAS' invalid Variable or Meter Name 'COGENERATION:NATURALGAS'\n   ** Warning ** In Output:Table:Monthly 'BUILDING ENERGY PERFORMANCE - DISTRICT HEATING' invalid Variable or Meter Name 'INTERIORLIGHTS:DISTRICTHEATING'\n   ** Warning ** In Output:Table:Monthly 'BUILDING ENERGY PERFORMANCE - DISTRICT HEATING' invalid Variable or Meter Name 'EXTERIORLIGHTS:DISTRICTHEATING'\n   ** Warning ** In Output:Table:Monthly 'BUILDING ENERGY PERFORMANCE - DISTRICT HEATING' invalid Variable or Meter Name 'INTERIOREQUIPMENT:DISTRICTHEATING'\n   ** Warning ** In Output:Table:Monthly 'BUILDING ENERGY PERFORMANCE - DISTRICT HEATING' invalid Variable or Meter Name 'EXTERIOREQUIPMENT:DISTRICTHEATING'\n   ** Warning ** In Output:Table:Monthly 'BUILDING ENERGY PERFORMANCE - DISTRICT HEATING' invalid Variable or Meter Name 'FANS:DISTRICTHEATING'\n   ** Warning ** In Output:Table:Monthly 'BUILDING ENERGY PERFORMANCE - DISTRICT HEATING' invalid Variable or Meter Name 'PUMPS:DISTRICTHEATING'\n   ** Warning ** In Output:Table:Monthly 'BUILDING ENERGY PERFORMANCE - DISTRICT HEATING' invalid Variable or Meter Name 'HEATING:DISTRICTHEATING'\n   ** Warning ** In Output:Table:Monthly 'BUILDING ENERGY PERFORMANCE - DISTRICT HEATING' invalid Variable or Meter Name 'COOLING:DISTRICTHEATING'\n   ** Warning ** In Output:Table:Monthly 'BUILDING ENERGY PERFORMANCE - DISTRICT HEATING' invalid Variable or Meter Name 'HEATREJECTION:DISTRICTHEATING'\n   ** Warning ** In Output:Table:Monthly 'BUILDING ENERGY PERFORMANCE - DISTRICT HEATING' invalid Variable or Meter Name 'HUMIDIFIER:DISTRICTHEATING'\n   ** Warning ** In Output:Table:Monthly 'BUILDING ENERGY PERFORMANCE - DISTRICT HEATING' invalid Variable or Meter Name 'HEATRECOVERY:DISTRICTHEATING'\n   ** Warning ** In Output:Table:Monthly 'BUILDING ENERGY PERFORMANCE - DISTRICT HEATING' invalid Variable or Meter Name 'WATERSYSTEMS:DISTRICTHEATING'\n   ** Warning ** In Output:Table:Monthly 'BUILDING ENERGY PERFORMANCE - DISTRICT HEATING' invalid Variable or Meter Name 'COGENERATION:DISTRICTHEATING'\n   ** Warning ** In Output:Table:Monthly 'BUILDING ENERGY PERFORMANCE - DISTRICT COOLING' invalid Variable or Meter Name 'INTERIORLIGHTS:DISTRICTCOOLING'\n   ** Warning ** In Output:Table:Monthly 'BUILDING ENERGY PERFORMANCE - DISTRICT COOLING' invalid Variable or Meter Name 'EXTERIORLIGHTS:DISTRICTCOOLING'\n   ** Warning ** In Output:Table:Monthly 'BUILDING ENERGY PERFORMANCE - DISTRICT COOLING' invalid Variable or Meter Name 'INTERIOREQUIPMENT:DISTRICTCOOLING'\n   ** Warning ** In Output:Table:Monthly 'BUILDING ENERGY PERFORMANCE - DISTRICT COOLING' invalid Variable or Meter Name 'EXTERIOREQUIPMENT:DISTRICTCOOLING'\n   ** Warning ** In Output:Table:Monthly 'BUILDING ENERGY PERFORMANCE - DISTRICT COOLING' invalid Variable or Meter Name 'FANS:DISTRICTCOOLING'\n   ** Warning ** In Output:Table:Monthly 'BUILDING ENERGY PERFORMANCE - DISTRICT COOLING' invalid Variable or Meter Name 'PUMPS:DISTRICTCOOLING'\n   ** Warning ** In Output:Table:Monthly 'BUILDING ENERGY PERFORMANCE - DISTRICT COOLING' invalid Variable or Meter Name 'HEATING:DISTRICTCOOLING'\n   ** Warning ** In Output:Table:Monthly 'BUILDING ENERGY PERFORMANCE - DISTRICT COOLING' invalid Variable or Meter Name 'COOLING:DISTRICTCOOLING'\n   ** Warning ** In Output:Table:Monthly 'BUILDING ENERGY PERFORMANCE - DISTRICT COOLING' invalid Variable or Meter Name 'HEATREJECTION:DISTRICTCOOLING'\n   ** Warning ** In Output:Table:Monthly 'BUILDING ENERGY PERFORMANCE - DISTRICT COOLING' invalid Variable or Meter Name 'HUMIDIFIER:DISTRICTCOOLING'\n   ** Warning ** In Output:Table:Monthly 'BUILDING ENERGY PERFORMANCE - DISTRICT COOLING' invalid Variable or Meter Name 'HEATRECOVERY:DISTRICTCOOLING'\n   ** Warning ** In Output:Table:Monthly 'BUILDING ENERGY PERFORMANCE - DISTRICT COOLING' invalid Variable or Meter Name 'WATERSYSTEMS:DISTRICTCOOLING'\n   ** Warning ** In Output:Table:Monthly 'BUILDING ENERGY PERFORMANCE - DISTRICT COOLING' invalid Variable or Meter Name 'COGENERATION:DISTRICTCOOLING'\n   ** Warning ** In Output:Table:Monthly 'BUILDING ENERGY PERFORMANCE - ELECTRICITY PEAK DEMAND' invalid Variable or Meter Name 'EXTERIOREQUIPMENT:ELECTRICITY'\n   ** Warning ** In Output:Table:Monthly 'BUILDING ENERGY PERFORMANCE - ELECTRICITY PEAK DEMAND' invalid Variable or Meter Name 'HUMIDIFIER:ELECTRICITY'\n   ** Warning ** In Output:Table:Monthly 'BUILDING ENERGY PERFORMANCE - ELECTRICITY PEAK DEMAND' invalid Variable or Meter Name 'COGENERATION:ELECTRICITY'\n   ** Warning ** In Output:Table:Monthly 'BUILDING ENERGY PERFORMANCE - NATURAL GAS PEAK DEMAND' invalid Variable or Meter Name 'EXTERIOREQUIPMENT:NATURALGAS'\n   ** Warning ** In Output:Table:Monthly 'BUILDING ENERGY PERFORMANCE - NATURAL GAS PEAK DEMAND' invalid Variable or Meter Name 'COOLING:NATURALGAS'\n   ** Warning ** In Output:Table:Monthly 'BUILDING ENERGY PERFORMANCE - NATURAL GAS PEAK DEMAND' invalid Variable or Meter Name 'COGENERATION:NATURALGAS'\n   ** Warning ** In Output:Table:Monthly 'BUILDING ENERGY PERFORMANCE - DISTRICT HEATING PEAK DEMAND' invalid Variable or Meter Name 'DISTRICTHEATING:FACILITY'\n   ** Warning ** In Output:Table:Monthly 'BUILDING ENERGY PERFORMANCE - DISTRICT HEATING PEAK DEMAND' invalid Variable or Meter Name 'INTERIORLIGHTS:DISTRICTHEATING'\n   ** Warning ** In Output:Table:Monthly 'BUILDING ENERGY PERFORMANCE - DISTRICT HEATING PEAK DEMAND' invalid Variable or Meter Name 'EXTERIORLIGHTS:DISTRICTHEATING'\n   ** Warning ** In Output:Table:Monthly 'BUILDING ENERGY PERFORMANCE - DISTRICT HEATING PEAK DEMAND' invalid Variable or Meter Name 'INTERIOREQUIPMENT:DISTRICTHEATING'\n   ** Warning ** In Output:Table:Monthly 'BUILDING ENERGY PERFORMANCE - DISTRICT HEATING PEAK DEMAND' invalid Variable or Meter Name 'EXTERIOREQUIPMENT:DISTRICTHEATING'\n   ** Warning ** In Output:Table:Monthly 'BUILDING ENERGY PERFORMANCE - DISTRICT HEATING PEAK DEMAND' invalid Variable or Meter Name 'FANS:DISTRICTHEATING'\n   ** Warning ** In Output:Table:Monthly 'BUILDING ENERGY PERFORMANCE - DISTRICT HEATING PEAK DEMAND' invalid Variable or Meter Name 'PUMPS:DISTRICTHEATING'\n   ** Warning ** In Output:Table:Monthly 'BUILDING ENERGY PERFORMANCE - DISTRICT HEATING PEAK DEMAND' invalid Variable or Meter Name 'HEATING:DISTRICTHEATING'\n   ** Warning ** In Output:Table:Monthly 'BUILDING ENERGY PERFORMANCE - DISTRICT HEATING PEAK DEMAND' invalid Variable or Meter Name 'COOLING:DISTRICTHEATING'\n   ** Warning ** In Output:Table:Monthly 'BUILDING ENERGY PERFORMANCE - DISTRICT HEATING PEAK DEMAND' invalid Variable or Meter Name 'HEATREJECTION:DISTRICTHEATING'\n   ** Warning ** In Output:Table:Monthly 'BUILDING ENERGY PERFORMANCE - DISTRICT HEATING PEAK DEMAND' invalid Variable or Meter Name 'HUMIDIFIER:DISTRICTHEATING'\n   ** Warning ** In Output:Table:Monthly 'BUILDING ENERGY PERFORMANCE - DISTRICT HEATING PEAK DEMAND' invalid Variable or Meter Name 'HEATRECOVERY:DISTRICTHEATING'\n   ** Warning ** In Output:Table:Monthly 'BUILDING ENERGY PERFORMANCE - DISTRICT HEATING PEAK DEMAND' invalid Variable or Meter Name 'WATERSYSTEMS:DISTRICTHEATING'\n   ** Warning ** In Output:Table:Monthly 'BUILDING ENERGY PERFORMANCE - DISTRICT HEATING PEAK DEMAND' invalid Variable or Meter Name 'COGENERATION:DISTRICTHEATING'\n   ** Warning ** In Output:Table:Monthly 'BUILDING ENERGY PERFORMANCE - DISTRICT COOLING PEAK DEMAND' invalid Variable or Meter Name 'DISTRICTCOOLING:FACILITY'\n   ** Warning ** In Output:Table:Monthly 'BUILDING ENERGY PERFORMANCE - DISTRICT COOLING PEAK DEMAND' invalid Variable or Meter Name 'INTERIORLIGHTS:DISTRICTCOOLING'\n   ** Warning ** In Output:Table:Monthly 'BUILDING ENERGY PERFORMANCE - DISTRICT COOLING PEAK DEMAND' invalid Variable or Meter Name 'EXTERIORLIGHTS:DISTRICTCOOLING'\n   ** Warning ** In Output:Table:Monthly 'BUILDING ENERGY PERFORMANCE - DISTRICT COOLING PEAK DEMAND' invalid Variable or Meter Name 'INTERIOREQUIPMENT:DISTRICTCOOLING'\n   ** Warning ** In Output:Table:Monthly 'BUILDING ENERGY PERFORMANCE - DISTRICT COOLING PEAK DEMAND' invalid Variable or Meter Name 'EXTERIOREQUIPMENT:DISTRICTCOOLING'\n   ** Warning ** In Output:Table:Monthly 'BUILDING ENERGY PERFORMANCE - DISTRICT COOLING PEAK DEMAND' invalid Variable or Meter Name 'FANS:DISTRICTCOOLING'\n   ** Warning ** In Output:Table:Monthly 'BUILDING ENERGY PERFORMANCE - DISTRICT COOLING PEAK DEMAND' invalid Variable or Meter Name 'PUMPS:DISTRICTCOOLING'\n   ** Warning ** In Output:Table:Monthly 'BUILDING ENERGY PERFORMANCE - DISTRICT COOLING PEAK DEMAND' invalid Variable or Meter Name 'HEATING:DISTRICTCOOLING'\n   ** Warning ** In Output:Table:Monthly 'BUILDING ENERGY PERFORMANCE - DISTRICT COOLING PEAK DEMAND' invalid Variable or Meter Name 'COOLING:DISTRICTCOOLING'\n   ** Warning ** In Output:Table:Monthly 'BUILDING ENERGY PERFORMANCE - DISTRICT COOLING PEAK DEMAND' invalid Variable or Meter Name 'HEATREJECTION:DISTRICTCOOLING'\n   ** Warning ** In Output:Table:Monthly 'BUILDING ENERGY PERFORMANCE - DISTRICT COOLING PEAK DEMAND' invalid Variable or Meter Name 'HUMIDIFIER:DISTRICTCOOLING'\n   ** Warning ** In Output:Table:Monthly 'BUILDING ENERGY PERFORMANCE - DISTRICT COOLING PEAK DEMAND' invalid Variable or Meter Name 'HEATRECOVERY:DISTRICTCOOLING'\n   ** Warning ** In Output:Table:Monthly 'BUILDING ENERGY PERFORMANCE - DISTRICT COOLING PEAK DEMAND' invalid Variable or Meter Name 'WATERSYSTEMS:DISTRICTCOOLING'\n   ** Warning ** In Output:Table:Monthly 'BUILDING ENERGY PERFORMANCE - DISTRICT COOLING PEAK DEMAND' invalid Variable or Meter Name 'COGENERATION:DISTRICTCOOLING'\n   ** Warning ** CoolingTower:VariableSpeed \"PROPELLER OR AXIAL VARIABLE SPEED FAN OPEN COOLING TOWER 40.2 GPM/HP\" - Water flow rate ratio is outside model boundaries at 1.25.\n   **   ~~~   **  ...Valid range = 0.75 to 1.25. Occurrence info = BUFFALO NIAGARA INTL AP ANN CLG .4% CONDNS DB=>MWB 1 HVAC Sizing Pass 1, 07/21 07:00 - 07:09\n   **   ~~~   **  ...Water flow rate ratio passed to the model = 1.25000\n   **   ~~~   **  ...Water flow rate ratios outside model boundaries may not adversely affect tower performance.\n   ** Warning ** CoolingTower:VariableSpeed \"PROPELLER OR AXIAL VARIABLE SPEED FAN OPEN COOLING TOWER 40.2 GPM/HP\" - Water flow rate ratio is outside model boundaries at 1.25.\n   **   ~~~   **  ...Valid range = 0.75 to 1.25. Occurrence info = BUFFALO NIAGARA INTL AP ANN CLG .4% CONDNS DB=>MWB 1 HVAC Sizing Pass 1, 07/21 07:26 - 07:34\n   **   ~~~   **  ...Water flow rate ratio passed to the model = 1.25000\n   **   ~~~   **  ...Water flow rate ratios outside model boundaries may not adversely affect tower performance.\n   ** Warning ** CoolingTower:VariableSpeed \"PROPELLER OR AXIAL VARIABLE SPEED FAN OPEN COOLING TOWER 40.2 GPM/HP\" - Water flow rate ratio is outside model boundaries at 1.25.\n   **   ~~~   **  ...Valid range = 0.75 to 1.25. Occurrence info = BUFFALO NIAGARA INTL AP ANN CLG .4% CONDNS DB=>MWB 1 HVAC Sizing Pass 1, 07/21 07:34 - 07:43\n   **   ~~~   **  ...Water flow rate ratio passed to the model = 1.25000\n   **   ~~~   **  ...Water flow rate ratios outside model boundaries may not adversely affect tower performance.\n   ** Warning ** CoolingTower:VariableSpeed \"PROPELLER OR AXIAL VARIABLE SPEED FAN OPEN COOLING TOWER 40.2 GPM/HP\" - Water flow rate ratio is outside model boundaries at 1.25.\n   **   ~~~   **  ...Valid range = 0.75 to 1.25. Occurrence info = BUFFALO NIAGARA INTL AP ANN CLG .4% CONDNS DB=>MWB 1 HVAC Sizing Pass 1, 07/21 07:43 - 07:51\n   **   ~~~   **  ...Water flow rate ratio passed to the model = 1.25000\n   **   ~~~   **  ...Water flow rate ratios outside model boundaries may not adversely affect tower performance.\n   ** Warning ** CoolingTower:VariableSpeed \"PROPELLER OR AXIAL VARIABLE SPEED FAN OPEN COOLING TOWER 40.2 GPM/HP\" - Water flow rate ratio is outside model boundaries at 1.25.\n   **   ~~~   **  ...Valid range = 0.75 to 1.25. Occurrence info = BUFFALO NIAGARA INTL AP ANN CLG .4% CONDNS DB=>MWB 1 HVAC Sizing Pass 1, 07/21 07:51 - 08:00\n   **   ~~~   **  ...Water flow rate ratio passed to the model = 1.25000\n   **   ~~~   **  ...Water flow rate ratios outside model boundaries may not adversely affect tower performance.\n   ** Warning ** More than 4% of time (1.0 hours) uncomfortable in one or more zones \n   **   ~~~   ** Based on ASHRAE 55-2004 graph (Section 5.2.1.1)\n   **   ~~~   ** During SizingPeriod Environment [01/21 - 01/21]: BUFFALO NIAGARA INTL AP ANN HTG 99.6% CONDNS DB 1 HVAC Sizing Pass 1\n   **   ~~~   ** 48.0 hours were uncomfortable in zone: BUILDING STORY 3 THERMALZONE\n   **   ~~~   ** 48.0 hours were uncomfortable in zone: BUILDING STORY 3 THERMALZONE 1\n   **   ~~~   ** 48.0 hours were uncomfortable in zone: BUILDING STORY 3 THERMALZONE 2\n   **   ~~~   ** 48.0 hours were uncomfortable in zone: BUILDING STORY 3 THERMALZONE 3\n   **   ~~~   ** 48.0 hours were uncomfortable in zone: BUILDING STORY 3 THERMALZONE 4\n   **   ~~~   ** 48.0 hours were uncomfortable in zone: BUILDING STORY 3 THERMALZONE 5\n   **   ~~~   ** 48.0 hours were uncomfortable in zone: BUILDING STORY 3 THERMALZONE 6\n   **   ~~~   ** 48.0 hours were uncomfortable in zone: BUILDING STORY 3 THERMALZONE 7\n   **   ~~~   ** 25.0 hours were uncomfortable in zone: BUILDING STORY 4 THERMALZONE\n   **   ~~~   ** 20.0 hours were uncomfortable in zone: BUILDING STORY 4 THERMALZONE 2\n   **   ~~~   ** 24.0 hours were uncomfortable in zone: BUILDING STORY 4 THERMALZONE 4\n   **   ~~~   ** 2.0 hours were uncomfortable in zone: BUILDING STORY 4 THERMALZONE 5\n   **   ~~~   ** 23.0 hours were uncomfortable in zone: BUILDING STORY 4 THERMALZONE 6\n   ************* Beginning Simulation\n   ** Severe  ** CheckWarmupConvergence: Loads Initialization, Zone=\"BUILDING STORY 1 THERMALZONE 1\" did not converge after 25 warmup days.\n   **   ~~~   ** See Warmup Convergence Information in .eio file for details.\n   **   ~~~   ** ...Environment(RunPeriod)=\"RUN PERIOD 1\"\n   **   ~~~   ** ..Max Temp Comparison = 4.41E-002 vs Temperature Convergence Tolerance=0.40 - Pass Convergence\n   **   ~~~   ** ..Min Temp Comparison = 1.49E-002 vs Temperature Convergence Tolerance=0.40 - Pass Convergence\n   **   ~~~   ** ..Max Heat Load Comparison = 7.0459E-002 vs Loads Convergence Tolerance=4.00E-002 - Fail Convergence\n   **   ~~~   ** ..Max Cool Load Comparison = 0.9467 vs Loads Convergence Tolerance=4.00E-002 - Pass Convergence\n   ** Severe  ** CheckWarmupConvergence: Loads Initialization, Zone=\"BUILDING STORY 2 THERMALZONE 1\" did not converge after 25 warmup days.\n   **   ~~~   ** ...Environment(RunPeriod)=\"RUN PERIOD 1\"\n   **   ~~~   ** ..Max Temp Comparison = 6.79E-003 vs Temperature Convergence Tolerance=0.40 - Pass Convergence\n   **   ~~~   ** ..Min Temp Comparison = 7.84E-002 vs Temperature Convergence Tolerance=0.40 - Pass Convergence\n   **   ~~~   ** ..Max Heat Load Comparison = 4.5931E-002 vs Loads Convergence Tolerance=4.00E-002 - Fail Convergence\n   **   ~~~   ** ..Max Cool Load Comparison = 0.8371 vs Loads Convergence Tolerance=4.00E-002 - Pass Convergence\n   ** Severe  
[...]
               "TIMESERIES: Zone Thermal Comfort Fanger Model PPD",
               "KEY VALUES: [\"BUILDING STORY 1 THERMALZONE 1 OFFICE WHOLEBUILDING - LG OFFICE PEOPLE 1\", \"BUILDING STORY 1 THERMALZONE 2 OFFICE WHOLEBUILDING - LG OFFICE PEOPLE 1\", \"BUILDING STORY 1 THERMALZONE 3 OFFICE WHOLEBUILDING - LG OFFICE PEOPLE 1\", \"BUILDING STORY 1 THERMALZONE 4 OFFICE WHOLEBUILDING - LG OFFICE PEOPLE 1\", \"BUILDING STORY 1 THERMALZONE 5 OFFICE WHOLEBUILDING - LG OFFICE PEOPLE 1\", \"BUILDING STORY 1 THERMALZONE 6 OFFICE WHOLEBUILDING - LG OFFICE PEOPLE 1\", \"BUILDING STORY 1 THERMALZONE 7 OFFICE WHOLEBUILDING - LG OFFICE PEOPLE 1\", \"BUILDING STORY 1 THERMALZONE OFFICE WHOLEBUILDING - LG OFFICE PEOPLE 1\", \"BUILDING STORY 2 THERMALZONE 1 OFFICE WHOLEBUILDING - LG OFFICE PEOPLE 2\", \"BUILDING STORY 2 THERMALZONE 2 OFFICE WHOLEBUILDING - LG OFFICE PEOPLE 2\", \"BUILDING STORY 2 THERMALZONE 3 OFFICE WHOLEBUILDING - LG OFFICE PEOPLE 2\", \"BUILDING STORY 2 THERMALZONE 4 OFFICE WHOLEBUILDING - LG OFFICE PEOPLE 2\", \"BUILDING STORY 2 THERMALZONE 5 OFFICE WHOLEBUILDING - LG OFFICE PEOPLE 2\", \"BUILDING STORY 2 THERMALZONE 6 OFFICE WHOLEBUILDING - LG OFFICE PEOPLE 2\", \"BUILDING STORY 2 THERMALZONE 7 OFFICE WHOLEBUILDING - LG OFFICE PEOPLE 2\", \"BUILDING STORY 2 THERMALZONE OFFICE WHOLEBUILDING - LG OFFICE PEOPLE 2\", \"BUILDING STORY 3 THERMALZONE 1 FULLSERVICERESTAURANT DINING PEOPLE 1\", \"BUILDING STORY 3 THERMALZONE 1 FULLSERVICERESTAURANT KITCHEN PEOPLE 1\", \"BUILDING STORY 3 THERMALZONE 2 FULLSERVICERESTAURANT DINING PEOPLE 1\", \"BUILDING STORY 3 THERMALZONE 2 FULLSERVICERESTAURANT KITCHEN PEOPLE 1\", \"BUILDING STORY 3 THERMALZONE 3 FULLSERVICERESTAURANT DINING PEOPLE 1\", \"BUILDING STORY 3 THERMALZONE 3 FULLSERVICERESTAURANT KITCHEN PEOPLE 1\", \"BUILDING STORY 3 THERMALZONE 4 FULLSERVICERESTAURANT DINING PEOPLE 1\", \"BUILDING STORY 3 THERMALZONE 4 FULLSERVICERESTAURANT KITCHEN PEOPLE 1\", \"BUILDING STORY 3 THERMALZONE 5 FULLSERVICERESTAURANT DINING PEOPLE 1\", \"BUILDING STORY 3 THERMALZONE 5 FULLSERVICERESTAURANT KITCHEN PEOPLE 1\", \"BUILDING STORY 3 THERMALZONE 6 FULLSERVICERESTAURANT DINING PEOPLE 1\", \"BUILDING STORY 3 THERMALZONE 6 FULLSERVICERESTAURANT KITCHEN PEOPLE 1\", \"BUILDING STORY 3 THERMALZONE 7 FULLSERVICERESTAURANT DINING PEOPLE 1\", \"BUILDING STORY 3 THERMALZONE 7 FULLSERVICERESTAURANT KITCHEN PEOPLE 1\", \"BUILDING STORY 3 THERMALZONE FULLSERVICERESTAURANT DINING PEOPLE 1\", \"BUILDING STORY 3 THERMALZONE FULLSERVICERESTAURANT KITCHEN PEOPLE 1\", \"BUILDING STORY 4 THERMALZONE 1 FULLSERVICERESTAURANT DINING PEOPLE 2\", \"BUILDING STORY 4 THERMALZONE 2 FULLSERVICERESTAURANT DINING PEOPLE 2\", \"BUILDING STORY 4 THERMALZONE 3 FULLSERVICERESTAURANT DINING PEOPLE 2\", \"BUILDING STORY 4 THERMALZONE 4 FULLSERVICERESTAURANT DINING PEOPLE 2\", \"BUILDING STORY 4 THERMALZONE 5 FULLSERVICERESTAURANT DINING PEOPLE 2\", \"BUILDING STORY 4 THERMALZONE 6 FULLSERVICERESTAURANT DINING PEOPLE 2\", \"BUILDING STORY 4 THERMALZONE 7 FULLSERVICERESTAURANT DINING PEOPLE 2\", \"BUILDING STORY 4 THERMALZONE FULLSERVICERESTAURANT DINING PEOPLE 2\"]",
               "!! TIMESERIES NAME: Zone Thermal Comfort Fanger Model PPD AND key_value: BUILDING STORY 1 THERMALZONE 1 OFFICE WHOLEBUILDING - LG OFFICE PEOPLE 1",
               "Is Initialized",
               "SETTING UP NEW ARRAY FOR: Zone Thermal Comfort Fanger Model PPD",
               "!! TIMESERIES NAME: Zone Thermal Comfort Fanger Model PPD AND key_value: BUILDING STORY 1 THERMALZONE 2 OFFICE WHOLEBUILDING - LG OFFICE PEOPLE 1",
               "Is Initialized",
               "!! TIMESERIES NAME: Zone Thermal Comfort Fanger Model PPD AND key_value: BUILDING STORY 1 THERMALZONE 3 OFFICE WHOLEBUILDING - LG OFFICE PEOPLE 1",
               "Is Initialized",
               "!! TIMESERIES NAME: Zone Thermal Comfort Fanger Model PPD AND key_value: BUILDING STORY 1 THERMALZONE 4 OFFICE WHOLEBUILDING - LG OFFICE PEOPLE 1",
               "Is Initialized",
               "!! TIMESERIES NAME: Zone Thermal Comfort Fanger Model PPD AND key_value: BUILDING STORY 1 THERMALZONE 5 OFFICE WHOLEBUILDING - LG OFFICE PEOPLE 1",
               "Is Initialized",
               "!! TIMESERIES NAME: Zone Thermal Comfort Fanger Model PPD AND key_value: BUILDING STORY 1 THERMALZONE 6 OFFICE WHOLEBUILDING - LG OFFICE PEOPLE 1",
               "Is Initialized",
               "!! TIMESERIES NAME: Zone Thermal Comfort Fanger Model PPD AND key_value: BUILDING STORY 1 THERMALZONE 7 OFFICE WHOLEBUILDING - LG OFFICE PEOPLE 1",
               "Is Initialized",
               "!! TIMESERIES NAME: Zone Thermal Comfort Fanger Model PPD AND key_value: BUILDING STORY 1 THERMALZONE OFFICE WHOLEBUILDING - LG OFFICE PEOPLE 1",
               "Is Initialized",
               "!! TIMESERIES NAME: Zone Thermal Comfort Fanger Model PPD AND key_value: BUILDING STORY 2 THERMALZONE 1 OFFICE WHOLEBUILDING - LG OFFICE PEOPLE 2",
               "Is Initialized",
               "!! TIMESERIES NAME: Zone Thermal Comfort Fanger Model PPD AND key_value: BUILDING STORY 2 THERMALZONE 2 OFFICE WHOLEBUILDING - LG OFFICE PEOPLE 2",
               "Is Initialized",
               "!! TIMESERIES NAME: Zone Thermal Comfort Fanger Model PPD AND key_value: BUILDING STORY 2 THERMALZONE 3 OFFICE WHOLEBUILDING - LG OFFICE PEOPLE 2",
               "Is Initialized",
               "!! TIMESERIES NAME: Zone Thermal Comfort Fanger Model PPD AND key_value: BUILDING STORY 2 THERMALZONE 4 OFFICE WHOLEBUILDING - LG OFFICE PEOPLE 2",
               "Is Initialized",
               "!! TIMESERIES NAME: Zone Thermal Comfort Fanger Model PPD AND key_value: BUILDING STORY 2 THERMALZONE 5 OFFICE WHOLEBUILDING - LG OFFICE PEOPLE 2",
               "Is Initialized",
               "!! TIMESERIES NAME: Zone Thermal Comfort Fanger Model PPD AND key_value: BUILDING STORY 2 THERMALZONE 6 OFFICE WHOLEBUILDING - LG OFFICE PEOPLE 2",
               "Is Initialized",
               "!! TIMESERIES NAME: Zone Thermal Comfort Fanger Model PPD AND key_value: BUILDING STORY 2 THERMALZONE 7 OFFICE WHOLEBUILDING - LG OFFICE PEOPLE 2",
               "Is Initialized",
               "!! TIMESERIES NAME: Zone Thermal Comfort Fanger Model PPD AND key_value: BUILDING STORY 2 THERMALZONE OFFICE WHOLEBUILDING - LG OFFICE PEOPLE 2",
               "Is Initialized",
               "!! TIMESERIES NAME: Zone Thermal Comfort Fanger Model PPD AND key_value: BUILDING STORY 3 THERMALZONE 1 FULLSERVICERESTAURANT DINING PEOPLE 1",
               "Is Initialized",
               "!! TIMESERIES NAME: Zone Thermal Comfort Fanger Model PPD AND key_value: BUILDING STORY 3 THERMALZONE 1 FULLSERVICERESTAURANT KITCHEN PEOPLE 1",
               "Is Initialized",
               "!! TIMESERIES NAME: Zone Thermal Comfort Fanger Model PPD AND key_value: BUILDING STORY 3 THERMALZONE 2 FULLSERVICERESTAURANT DINING PEOPLE 1",
               "Is Initialized",
               "!! TIMESERIES NAME: Zone Thermal Comfort Fanger Model PPD AND key_value: BUILDING STORY 3 THERMALZONE 2 FULLSERVICERESTAURANT KITCHEN PEOPLE 1",
               "Is Initialized",
               "!! TIMESERIES NAME: Zone Thermal Comfort Fanger Model PPD AND key_value: BUILDING STORY 3 THERMALZONE 3 FULLSERVICERESTAURANT DINING PEOPLE 1",
               "Is Initialized",
               "!! TIMESERIES NAME: Zone Thermal Comfort Fanger Model PPD AND key_value: BUILDING STORY 3 THERMALZONE 3 FULLSERVICERESTAURANT KITCHEN PEOPLE 1",
               "Is Initialized",
               "!! TIMESERIES NAME: Zone Thermal Comfort Fanger Model PPD AND key_value: BUILDING STORY 3 THERMALZONE 4 FULLSERVICERESTAURANT DINING PEOPLE 1",
               "Is Initialized",
               "!! TIMESERIES NAME: Zone Thermal Comfort Fanger Model PPD AND key_value: BUILDING STORY 3 THERMALZONE 4 FULLSERVICERESTAURANT KITCHEN PEOPLE 1",
               "Is Initialized",
               "!! TIMESERIES NAME: Zone Thermal Comfort Fanger Model PPD AND key_value: BUILDING STORY 3 THERMALZONE 5 FULLSERVICERESTAURANT DINING PEOPLE 1",
               "Is Initialized",
               "!! TIMESERIES NAME: Zone Thermal Comfort Fanger Model PPD AND key_value: BUILDING STORY 3 THERMALZONE 5 FULLSERVICERESTAURANT KITCHEN PEOPLE 1",
               "Is Initialized",
               "!! TIMESERIES NAME: Zone Thermal Comfort Fanger Model PPD AND key_value: BUILDING STORY 3 THERMALZONE 6 FULLSERVICERESTAURANT DINING PEOPLE 1",
               "Is Initialized",
               "!! TIMESERIES NAME: Zone Thermal Comfort Fanger Model PPD AND key_value: BUILDING STORY 3 THERMALZONE 6 FULLSERVICERESTAURANT KITCHEN PEOPLE 1",
               "Is Initialized",
               "!! TIMESERIES NAME: Zone Thermal Comfort Fanger Model PPD AND key_value: BUILDING STORY 3 THERMALZONE 7 FULLSERVICERESTAURANT DINING PEOPLE 1",
               "Is Initialized",
               "!! TIMESERIES NAME: Zone Thermal Comfort Fanger Model PPD AND key_value: BUILDING STORY 3 THERMALZONE 7 FULLSERVICERESTAURANT KITCHEN PEOPLE 1",
               "Is Initialized",
               "!! TIMESERIES NAME: Zone Thermal Comfort Fanger Model PPD AND key_value: BUILDING STORY 3 THERMALZONE FULLSERVICERESTAURANT DINING PEOPLE 1",
               "Is Initialized",
               "!! TIMESERIES NAME: Zone Thermal Comfort Fanger Model PPD AND key_value: BUILDING STORY 3 THERMALZONE FULLSERVICERESTAURANT KITCHEN PEOPLE 1",
               "Is Initialized",
               "!! TIMESERIES NAME: Zone Thermal Comfort Fanger Model PPD AND key_value: BUILDING STORY 4 THERMALZONE 1 FULLSERVICERESTAURANT DINING PEOPLE 2",
               "Is Initialized",
               "!! TIMESERIES NAME: Zone Thermal Comfort Fanger Model PPD AND key_value: BUILDING STORY 4 THERMALZONE 2 FULLSERVICERESTAURANT DINING PEOPLE 2",
               "Is Initialized",
               "!! TIMESERIES NAME: Zone Thermal Comfort Fanger Model PPD AND key_value: BUILDING STORY 4 THERMALZONE 3 FULLSERVICERESTAURANT DINING PEOPLE 2",
               "Is Initialized",
               "!! TIMESERIES NAME: Zone Thermal Comfort Fanger Model PPD AND key_value: BUILDING STORY 4 THERMALZONE 4 FULLSERVICERESTAURANT DINING PEOPLE 2",
               "Is Initialized",
               "!! TIMESERIES NAME: Zone Thermal Comfort Fanger Model PPD AND key_value: BUILDING STORY 4 THERMALZONE 5 FULLSERVICERESTAURANT DINING PEOPLE 2",
               "Is Initialized",
               "!! TIMESERIES NAME: Zone Thermal Comfort Fanger Model PPD AND key_value: BUILDING STORY 4 THERMALZONE 6 FULLSERVICERESTAURANT DINING PEOPLE 2",
               "Is Initialized",
               "!! TIMESERIES NAME: Zone Thermal Comfort Fanger Model PPD AND key_value: BUILDING STORY 4 THERMALZONE 7 FULLSERVICERESTAURANT DINING PEOPLE 2",
               "Is Initialized",
               "!! TIMESERIES NAME: Zone Thermal Comfort Fanger Model PPD AND key_value: BUILDING STORY 4 THERMALZONE FULLSERVICERESTAURANT DINING PEOPLE 2",
               "Is Initialized",
               "timeseries Zone Thermal Comfort Fanger Model PPD: hours out of bounds: 0.0",
               "TIMESERIES: Net Electric Energy",
               "KEY VALUES: []",
               "!! TIMESERIES NAME: Net Electric Energy AND key_value: ",
               "Is NOT Initialized",
               "TIMESERIES: Electricity:Facility Power",
               "KEY VALUES: []",
               "!! TIMESERIES NAME: Electricity:Facility Power AND key_value: ",
               "Is NOT Initialized",
               "timeseries_name: Electricity:Facility Power, key: Electricity:Facility",
               "TIMESERIES: ElectricityProduced:Facility Power",
               "KEY VALUES: []",
               "!! TIMESERIES NAME: ElectricityProduced:Facility Power AND key_value: ",
               "Is NOT Initialized",
               "timeseries_name: ElectricityProduced:Facility Power, key: ElectricityProduced:Facility",
               "TIMESERIES: Electricity:Facility Apparent Power",
               "KEY VALUES: []",
               "!! TIMESERIES NAME: Electricity:Facility Apparent Power AND key_value: ",
               "Is NOT Initialized",
               "timeseries_name: Electricity:Facility Apparent Power, key: Electricity:Facility",
               "TIMESERIES: ElectricityProduced:Facility Apparent Power",
               "KEY VALUES: []",
               "!! TIMESERIES NAME: ElectricityProduced:Facility Apparent Power AND key_value: ",
               "Is NOT Initialized",
               "timeseries_name: ElectricityProduced:Facility Apparent Power, key: ElectricityProduced:Facility",
               "TIMESERIES: Net Power",
               "KEY VALUES: []",
               "!! TIMESERIES NAME: Net Power AND key_value: ",
               "Is NOT Initialized",
               "Power calc",
               "TIMESERIES: Net Apparent Power",
               "KEY VALUES: []",
               "!! TIMESERIES NAME: Net Apparent Power AND key_value: ",
               "Is NOT Initialized",
               "TIMESERIES: Ice Thermal Storage End Fraction",
               "KEY VALUES: []",
               "!! TIMESERIES NAME: Ice Thermal Storage End Fraction AND key_value: ",
               "Is NOT Initialized",
               "SETTING UP NEW ARRAY FOR: Ice Thermal Storage End Fraction",
               "TIMESERIES: Cooling Coil Ice Thermal Storage End Fraction",
               "KEY VALUES: []",
               "!! TIMESERIES NAME: Cooling Coil Ice Thermal Storage End Fraction AND key_value: ",
               "Is NOT Initialized",
               "SETTING UP NEW ARRAY FOR: Cooling Coil Ice Thermal Storage End Fraction",
               "new final_timeseries_names size: 172"
            ],
            "step_result" : "Success",
            "step_values" : 
            [
               {
                  "name" : "feature_id",
                  "value" : "1"
               },
               {
                  "name" : "feature_name",
                  "value" : "Mixed_use 1"
               },
               {
                  "name" : "feature_type",
                  "value" : "Building"
               },
               {
                  "name" : "feature_location",
                  "value" : "[-78.84701778930912, 42.81428490645774]"
               },
               {
                  "name" : "reporting_frequency",
                  "value" : "Timestep"
               }
            ],
            "step_warnings" : 
            [
               "Query failed for Life-Cycle Cost Report and TableName='Present Value for Recurring, Nonrecurring and Energy Costs (Before Tax)' AND RowName='LCC_MAT - BUILDING - LIFE CYCLE COSTS' AND ColumnName='Cost'",
               "Query failed for Packaged Ice Thermal Storage Capacity",
               "Query failed for Ice Thermal Storage Capacity",
               "Query failed for AnnualBuildingUtilityPerformanceSummary and TableName='End Uses' AND RowName='Total End Uses' AND ColumnName='Steam'",
               "Query failed for AnnualBuildingUtilityPerformanceSummary and TableName='End Uses' AND RowName='Heating' AND ColumnName='Fuel Oil #2'",
               "Query failed for AnnualBuildingUtilityPerformanceSummary and TableName='End Uses' AND RowName='Cooling' AND ColumnName='Fuel Oil #2'",
               "Query failed for AnnualBuildingUtilityPerformanceSummary and TableName='End Uses' AND RowName='Interior Lighting' AND ColumnName='Fuel Oil #2'",
               "Query failed for AnnualBuildingUtilityPerformanceSummary and TableName='End Uses' AND RowName='Exterior Lighting' AND ColumnName='Fuel Oil #2'",
               "Query failed for AnnualBuildingUtilityPerformanceSummary and TableName='End Uses' AND RowName='Interior Equipment' AND ColumnName='Fuel Oil #2'",
               "Query failed for AnnualBuildingUtilityPerformanceSummary and TableName='End Uses' AND RowName='Exterior Equipment' AND ColumnName='Fuel Oil #2'",
               "Query failed for AnnualBuildingUtilityPerformanceSummary and TableName='End Uses' AND RowName='Fans' AND ColumnName='Fuel Oil #2'",
               "Query failed for AnnualBuildingUtilityPerformanceSummary and TableName='End Uses' AND RowName='Pumps' AND ColumnName='Fuel Oil #2'",
               "Query failed for AnnualBuildingUtilityPerformanceSummary and TableName='End Uses' AND RowName='Heat Rejection' AND ColumnName='Fuel Oil #2'",
               "Query failed for AnnualBuildingUtilityPerformanceSummary and TableName='End Uses' AND RowName='Humidification' AND ColumnName='Fuel Oil #2'",
               "Query failed for AnnualBuildingUtilityPerformanceSummary and TableName='End Uses' AND RowName='Heat Recovery' AND ColumnName='Fuel Oil #2'",
               "Query failed for AnnualBuildingUtilityPerformanceSummary and TableName='End Uses' AND RowName='Water Systems' AND ColumnName='Fuel Oil #2'",
               "Query failed for AnnualBuildingUtilityPerformanceSummary and TableName='End Uses' AND RowName='Refrigeration' AND ColumnName='Fuel Oil #2'",
               "Query failed for AnnualBuildingUtilityPerformanceSummary and TableName='End Uses' AND RowName='Generators' AND ColumnName='Fuel Oil #2'",
               "Query failed for AnnualBuildingUtilityPerformanceSummary and TableName='End Uses' AND RowName='Heating' AND ColumnName='Steam'",
               "Query failed for AnnualBuildingUtilityPerformanceSummary and TableName='End Uses' AND RowName='Cooling' AND ColumnName='Steam'",
               "Query failed for AnnualBuildingUtilityPerformanceSummary and TableName='End Uses' AND RowName='Interior Lighting' AND ColumnName='Steam'",
               "Query failed for AnnualBuildingUtilityPerformanceSummary and TableName='End Uses' AND RowName='Exterior Lighting' AND ColumnName='Steam'",
               "Query failed for AnnualBuildingUtilityPerformanceSummary and TableName='End Uses' AND RowName='Interior Equipment' AND ColumnName='Steam'",
               "Query failed for AnnualBuildingUtilityPerformanceSummary and TableName='End Uses' AND RowName='Exterior Equipment' AND ColumnName='Steam'",
               "Query failed for AnnualBuildingUtilityPerformanceSummary and TableName='End Uses' AND RowName='Fans' AND ColumnName='Steam'",
               "Query failed for AnnualBuildingUtilityPerformanceSummary and TableName='End Uses' AND RowName='Pumps' AND ColumnName='Steam'",
               "Query failed for AnnualBuildingUtilityPerformanceSummary and TableName='End Uses' AND RowName='Heat Rejection' AND ColumnName='Steam'",
               "Query failed for AnnualBuildingUtilityPerformanceSummary and TableName='End Uses' AND RowName='Humidification' AND ColumnName='Steam'",
               "Query failed for AnnualBuildingUtilityPerformanceSummary and TableName='End Uses' AND RowName='Heat Recovery' AND ColumnName='Steam'",
               "Query failed for AnnualBuildingUtilityPerformanceSummary and TableName='End Uses' AND RowName='Water Systems' AND ColumnName='Steam'",
               "Query failed for AnnualBuildingUtilityPerformanceSummary and TableName='End Uses' AND RowName='Refrigeration' AND ColumnName='Steam'",
               "Query failed for AnnualBuildingUtilityPerformanceSummary and TableName='End Uses' AND RowName='Generators' AND ColumnName='Steam'",
               "Query failed for AnnualBuildingUtilityPerformanceSummary and TableName='End Uses By Subcategory' AND RowName='Exterior Equipment:Electric Vehicles' AND ColumnName='Electricity'",
               "Query failed for Economics Results Summary Report and TableName='Annual Cost' AND RowName='Cost' AND ColumnName='Total'",
               "Query failed for Economics Results Summary Report and TableName='Annual Cost' AND RowName='Cost' AND ColumnName='Electric'",
               "Query failed for Economics Results Summary Report and TableName='Annual Cost' AND RowName='Cost' AND ColumnName='Natural Gas'"
            ]
         }
      }
   ],
   "updated_at" : "20210811T041612Z",
   "weather_file" : null
}